<routes>
    <vehicle id="veh_1644964" depart="0.0">
        <route edges="21214_sa"/>
    </vehicle>
</routes>