<additional>
	<edgeData id="test_1" freq="100" file="edgedata.xml"/>
</additional>