<?xml version="1.0" encoding="UTF-8"?>

<!-- generated on 2023-12-11 19:46:20.842723 by SimulationProcessBot.py UNKNOWN
<configuration>
    <net-file value="./real-world-simulation-withTLS/gen_net/test4_1.net.xml"/>
    <config-file value="./real-world-simulation-withTLS/gen_net/test4_1.sumocfg"/>
    <output-file value="./real-world-simulation-withTLS/gen_net/newTLS.add.xml"/>
    <route-files value="./real-world-simulation-withTLS/gen_net/test4_2.rou.xml"/>
</configuration>
-->

<additional xmlns:xsi="http://www.w3.org/2001/XMLSchema-instance" xsi:noNamespaceSchemaLocation="http://sumo.dlr.de/xsd/additional_file.xsd">
</additional>
