<?xml version="1.0" encoding="UTF-8"?>
<routes>
    <trip id="0" depart="0" from="55083473#1.4.32" to="55083473#2"/>
    <trip id="1" depart="1" from="55083473#1.4.32" to="55083473#2"/>
    <trip id="2" depart="2" from="55083473#1.4.32" to="55083473#2"/>
    <trip id="3" depart="3" from="55083473#1.4.32" to="55083473#2"/>
    <trip id="4" depart="4" from="55083473#1.4.32" to="55083473#2"/>
    <trip id="5" depart="5" from="55083473#1.4.32" to="55083473#2"/>
    <trip id="6" depart="6" from="55083473#1.4.32" to="55083473#2"/>
    <trip id="7" depart="7" from="55083473#1.4.32" to="55083473#2"/>
    <trip id="8" depart="8" from="55083473#1.4.32" to="55083473#2"/>
    <trip id="9" depart="9" from="55083473#1.4.32" to="55083473#2"/>
    <trip id="10" depart="10" from="55083473#1.4.32" to="55083473#2"/>
    <trip id="11" depart="11" from="55083473#1.4.32" to="55083473#2"/>
    <trip id="12" depart="12" from="55083473#1.4.32" to="55083473#2"/>
    <trip id="13" depart="13" from="55083473#1.4.32" to="55083473#2"/>
    <trip id="14" depart="14" from="55083473#1.4.32" to="55083473#2"/>
    <trip id="15" depart="15" from="55083473#1.4.32" to="55083473#2"/>
    <trip id="16" depart="16" from="55083473#1.4.32" to="55083473#2"/>
    <trip id="17" depart="17" from="55083473#1.4.32" to="55083473#2"/>
    <trip id="18" depart="18" from="55083473#1.4.32" to="55083473#2"/>
    <trip id="19" depart="19" from="55083473#1.4.32" to="55083473#2"/>
    <trip id="20" depart="20" from="55083473#1.4.32" to="55083473#2"/>
    <trip id="21" depart="21" from="55083473#1.4.32" to="55083473#2"/>
    <trip id="22" depart="22" from="55083473#1.4.32" to="55083473#2"/>
    <trip id="23" depart="23" from="55083473#1.4.32" to="55083473#2"/>
    <trip id="24" depart="24" from="55083473#1.4.32" to="55083473#2"/>
    <trip id="25" depart="25" from="55083473#1.4.32" to="55083473#2"/>
    <trip id="26" depart="26" from="55083473#1.4.32" to="55083473#2"/>
    <trip id="27" depart="27" from="55083473#1.4.32" to="55083473#2"/>
    <trip id="28" depart="28" from="55083473#1.4.32" to="55083473#2"/>
    <trip id="29" depart="29" from="55083473#1.4.32" to="55083473#2"/>
    <trip id="30" depart="30" from="55083473#1.4.32" to="55083473#2"/>
    <trip id="31" depart="31" from="55083473#1.4.32" to="55083473#2"/>
    <trip id="32" depart="32" from="55083473#1.4.32" to="55083473#2"/>
    <trip id="33" depart="33" from="55083473#1.4.32" to="55083473#2"/>
    <trip id="34" depart="34" from="55083473#1.4.32" to="55083473#2"/>
    <trip id="35" depart="35" from="55083473#1.4.32" to="55083473#2"/>
    <trip id="36" depart="36" from="55083473#1.4.32" to="55083473#2"/>
    <trip id="37" depart="37" from="55083473#1.4.32" to="55083473#2"/>
    <trip id="38" depart="38" from="55083473#1.4.32" to="55083473#2"/>
    <trip id="39" depart="39" from="55083473#1.4.32" to="55083473#2"/>
    <trip id="40" depart="40" from="55083473#1.4.32" to="55083473#2"/>
    <trip id="41" depart="41" from="55083473#1.4.32" to="55083473#2"/>
    <trip id="42" depart="42" from="55083473#1.4.32" to="55083473#2"/>
    <trip id="43" depart="43" from="55083473#1.4.32" to="55083473#2"/>
    <trip id="44" depart="44" from="55083473#1.4.32" to="55083473#2"/>
    <trip id="45" depart="45" from="55083473#1.4.32" to="55083473#2"/>
    <trip id="46" depart="46" from="55083473#1.4.32" to="55083473#2"/>
    <trip id="47" depart="47" from="55083473#1.4.32" to="55083473#2"/>
    <trip id="48" depart="48" from="55083473#1.4.32" to="55083473#2"/>
    <trip id="49" depart="49" from="55083473#1.4.32" to="55083473#2"/>
    <trip id="50" depart="50" from="55083473#1.4.32" to="55083473#2"/>
    <trip id="51" depart="51" from="55083473#1.4.32" to="55083473#2"/>
    <trip id="52" depart="52" from="55083473#1.4.32" to="55083473#2"/>
    <trip id="53" depart="53" from="55083473#1.4.32" to="55083473#2"/>
    <trip id="54" depart="54" from="55083473#1.4.32" to="55083473#2"/>
    <trip id="55" depart="55" from="55083473#1.4.32" to="55083473#2"/>
    <trip id="56" depart="56" from="55083473#1.4.32" to="55083473#2"/>
    <trip id="57" depart="57" from="55083473#1.4.32" to="55083473#2"/>
    <trip id="58" depart="58" from="55083473#1.4.32" to="55083473#2"/>
    <trip id="59" depart="59" from="55083473#1.4.32" to="55083473#2"/>
    <trip id="60" depart="60" from="55083473#1.4.32" to="55083473#2"/>
    <trip id="61" depart="61" from="55083473#1.4.32" to="55083473#2"/>
    <trip id="62" depart="62" from="55083473#1.4.32" to="55083473#2"/>
    <trip id="63" depart="63" from="55083473#1.4.32" to="55083473#2"/>
    <trip id="64" depart="64" from="55083473#1.4.32" to="55083473#2"/>
    <trip id="65" depart="65" from="55083473#1.4.32" to="55083473#2"/>
    <trip id="66" depart="66" from="55083473#1.4.32" to="55083473#2"/>
    <trip id="67" depart="67" from="55083473#1.4.32" to="55083473#2"/>
    <trip id="68" depart="68" from="55083473#1.4.32" to="55083473#2"/>
    <trip id="69" depart="69" from="55083473#1.4.32" to="55083473#2"/>
    <trip id="70" depart="70" from="55083473#1.4.32" to="55083473#2"/>
    <trip id="71" depart="71" from="55083473#1.4.32" to="55083473#2"/>
    <trip id="72" depart="72" from="55083473#1.4.32" to="55083473#2"/>
    <trip id="73" depart="73" from="55083473#1.4.32" to="55083473#2"/>
    <trip id="74" depart="74" from="55083473#1.4.32" to="55083473#2"/>
    <trip id="75" depart="75" from="55083473#1.4.32" to="55083473#2"/>
    <trip id="76" depart="76" from="55083473#1.4.32" to="55083473#2"/>
    <trip id="77" depart="77" from="55083473#1.4.32" to="55083473#2"/>
    <trip id="78" depart="78" from="55083473#1.4.32" to="55083473#2"/>
    <trip id="79" depart="79" from="55083473#1.4.32" to="55083473#2"/>
    <trip id="80" depart="80" from="55083473#1.4.32" to="55083473#2"/>
    <trip id="81" depart="81" from="55083473#1.4.32" to="55083473#2"/>
    <trip id="82" depart="82" from="55083473#1.4.32" to="55083473#2"/>
    <trip id="83" depart="83" from="55083473#1.4.32" to="55083473#2"/>
    <trip id="84" depart="84" from="55083473#1.4.32" to="55083473#2"/>
    <trip id="85" depart="85" from="55083473#1.4.32" to="55083473#2"/>
    <trip id="86" depart="86" from="55083473#1.4.32" to="55083473#2"/>
    <trip id="87" depart="87" from="55083473#1.4.32" to="55083473#2"/>
    <trip id="88" depart="88" from="55083473#1.4.32" to="55083473#2"/>
    <trip id="89" depart="89" from="55083473#1.4.32" to="55083473#2"/>
    <trip id="90" depart="90" from="55083473#1.4.32" to="55083473#2"/>
    <trip id="91" depart="91" from="55083473#1.4.32" to="55083473#2"/>
    <trip id="92" depart="92" from="55083473#1.4.32" to="55083473#2"/>
    <trip id="93" depart="93" from="55083473#1.4.32" to="55083473#2"/>
    <trip id="94" depart="94" from="55083473#1.4.32" to="55083473#2"/>
    <trip id="95" depart="95" from="55083473#1.4.32" to="55083473#2"/>
    <trip id="96" depart="96" from="55083473#1.4.32" to="55083473#2"/>
    <trip id="97" depart="97" from="55083473#1.4.32" to="55083473#2"/>
    <trip id="98" depart="98" from="55083473#1.4.32" to="55083473#2"/>
    <trip id="99" depart="99" from="55083473#1.4.32" to="55083473#2"/>
    <trip id="100" depart="100" from="55083473#1.4.32" to="55083473#2"/>
    <trip id="101" depart="101" from="55083473#1.4.32" to="55083473#2"/>
    <trip id="102" depart="102" from="55083473#1.4.32" to="55083473#2"/>
    <trip id="103" depart="103" from="55083473#1.4.32" to="55083473#2"/>
    <trip id="104" depart="104" from="55083473#1.4.32" to="55083473#2"/>
    <trip id="105" depart="105" from="55083473#1.4.32" to="55083473#2"/>
    <trip id="106" depart="106" from="55083473#1.4.32" to="55083473#2"/>
    <trip id="107" depart="107" from="55083473#1.4.32" to="55083473#2"/>
    <trip id="108" depart="108" from="55083473#1.4.32" to="55083473#2"/>
    <trip id="109" depart="109" from="55083473#1.4.32" to="55083473#2"/>
    <trip id="110" depart="110" from="55083473#1.4.32" to="55083473#2"/>
    <trip id="111" depart="111" from="55083473#1.4.32" to="55083473#2"/>
    <trip id="112" depart="112" from="55083473#1.4.32" to="55083473#2"/>
    <trip id="113" depart="113" from="55083473#1.4.32" to="55083473#2"/>
    <trip id="114" depart="114" from="55083473#1.4.32" to="55083473#2"/>
    <trip id="115" depart="115" from="55083473#1.4.32" to="55083473#2"/>
    <trip id="116" depart="116" from="55083473#1.4.32" to="55083473#2"/>
    <trip id="117" depart="117" from="55083473#1.4.32" to="55083473#2"/>
    <trip id="118" depart="118" from="55083473#1.4.32" to="55083473#2"/>
    <trip id="119" depart="119" from="55083473#1.4.32" to="55083473#2"/>
    <trip id="120" depart="120" from="55083473#1.4.32" to="55083473#2"/>
    <trip id="121" depart="121" from="55083473#1.4.32" to="55083473#2"/>
    <trip id="122" depart="122" from="55083473#1.4.32" to="55083473#2"/>
    <trip id="123" depart="123" from="55083473#1.4.32" to="55083473#2"/>
    <trip id="124" depart="124" from="55083473#1.4.32" to="55083473#2"/>
    <trip id="125" depart="125" from="55083473#1.4.32" to="55083473#2"/>
    <trip id="126" depart="126" from="55083473#1.4.32" to="55083473#2"/>
    <trip id="127" depart="127" from="55083473#1.4.32" to="55083473#2"/>
    <trip id="128" depart="128" from="55083473#1.4.32" to="55083473#2"/>
    <trip id="129" depart="129" from="55083473#1.4.32" to="55083473#2"/>
    <trip id="130" depart="130" from="55083473#1.4.32" to="55083473#2"/>
    <trip id="131" depart="131" from="55083473#1.4.32" to="55083473#2"/>
    <trip id="132" depart="132" from="55083473#1.4.32" to="55083473#2"/>
    <trip id="133" depart="133" from="55083473#1.4.32" to="55083473#2"/>
    <trip id="134" depart="134" from="55083473#1.4.32" to="55083473#2"/>
    <trip id="135" depart="135" from="55083473#1.4.32" to="55083473#2"/>
    <trip id="136" depart="136" from="55083473#1.4.32" to="55083473#2"/>
    <trip id="137" depart="137" from="55083473#1.4.32" to="55083473#2"/>
    <trip id="138" depart="138" from="55083473#1.4.32" to="55083473#2"/>
    <trip id="139" depart="139" from="55083473#1.4.32" to="55083473#2"/>
    <trip id="140" depart="140" from="55083473#1.4.32" to="55083473#2"/>
    <trip id="141" depart="141" from="55083473#1.4.32" to="55083473#2"/>
    <trip id="142" depart="142" from="55083473#1.4.32" to="55083473#2"/>
    <trip id="143" depart="143" from="55083473#1.4.32" to="55083473#2"/>
    <trip id="144" depart="144" from="55083473#1.4.32" to="55083473#2"/>
    <trip id="145" depart="145" from="55083473#1.4.32" to="55083473#2"/>
    <trip id="146" depart="146" from="55083473#1.4.32" to="55083473#2"/>
    <trip id="147" depart="147" from="55083473#1.4.32" to="55083473#2"/>
    <trip id="148" depart="148" from="55083473#1.4.32" to="55083473#2"/>
    <trip id="149" depart="149" from="55083473#1.4.32" to="55083473#2"/>
    <trip id="150" depart="150" from="55083473#1.4.32" to="55083473#2"/>
    <trip id="151" depart="151" from="55083473#1.4.32" to="55083473#2"/>
    <trip id="152" depart="152" from="55083473#1.4.32" to="55083473#2"/>
    <trip id="153" depart="153" from="55083473#1.4.32" to="55083473#2"/>
    <trip id="154" depart="154" from="55083473#1.4.32" to="55083473#2"/>
    <trip id="155" depart="155" from="55083473#1.4.32" to="55083473#2"/>
    <trip id="156" depart="156" from="55083473#1.4.32" to="55083473#2"/>
    <trip id="157" depart="157" from="55083473#1.4.32" to="55083473#2"/>
    <trip id="158" depart="158" from="55083473#1.4.32" to="55083473#2"/>
    <trip id="159" depart="159" from="55083473#1.4.32" to="55083473#2"/>
    <trip id="160" depart="160" from="55083473#1.4.32" to="55083473#2"/>
    <trip id="161" depart="161" from="55083473#1.4.32" to="55083473#2"/>
    <trip id="162" depart="162" from="55083473#1.4.32" to="55083473#2"/>
    <trip id="163" depart="163" from="55083473#1.4.32" to="55083473#2"/>
    <trip id="164" depart="164" from="55083473#1.4.32" to="55083473#2"/>
    <trip id="165" depart="165" from="55083473#1.4.32" to="55083473#2"/>
    <trip id="166" depart="166" from="55083473#1.4.32" to="55083473#2"/>
    <trip id="167" depart="167" from="55083473#1.4.32" to="55083473#2"/>
    <trip id="168" depart="168" from="55083473#1.4.32" to="55083473#2"/>
    <trip id="169" depart="169" from="55083473#1.4.32" to="55083473#2"/>
    <trip id="170" depart="170" from="55083473#1.4.32" to="55083473#2"/>
    <trip id="171" depart="171" from="55083473#1.4.32" to="55083473#2"/>
    <trip id="172" depart="172" from="55083473#1.4.32" to="55083473#2"/>
    <trip id="173" depart="173" from="55083473#1.4.32" to="55083473#2"/>
    <trip id="174" depart="174" from="55083473#1.4.32" to="55083473#2"/>
    <trip id="175" depart="175" from="55083473#1.4.32" to="55083473#2"/>
    <trip id="176" depart="176" from="55083473#1.4.32" to="55083473#2"/>
    <trip id="177" depart="177" from="55083473#1.4.32" to="55083473#2"/>
    <trip id="178" depart="178" from="55083473#1.4.32" to="55083473#2"/>
    <trip id="179" depart="179" from="55083473#1.4.32" to="55083473#2"/>
    <trip id="180" depart="180" from="55083473#1.4.32" to="55083473#2"/>
    <trip id="181" depart="181" from="55083473#1.4.32" to="55083473#2"/>
    <trip id="182" depart="182" from="55083473#1.4.32" to="55083473#2"/>
    <trip id="183" depart="183" from="55083473#1.4.32" to="55083473#2"/>
    <trip id="184" depart="184" from="55083473#1.4.32" to="55083473#2"/>
    <trip id="185" depart="185" from="55083473#1.4.32" to="55083473#2"/>
    <trip id="186" depart="186" from="55083473#1.4.32" to="55083473#2"/>
    <trip id="187" depart="187" from="55083473#1.4.32" to="55083473#2"/>
    <trip id="188" depart="188" from="55083473#1.4.32" to="55083473#2"/>
    <trip id="189" depart="189" from="55083473#1.4.32" to="55083473#2"/>
    <trip id="190" depart="190" from="55083473#1.4.32" to="55083473#2"/>
    <trip id="191" depart="191" from="55083473#1.4.32" to="55083473#2"/>
    <trip id="192" depart="192" from="55083473#1.4.32" to="55083473#2"/>
    <trip id="193" depart="193" from="55083473#1.4.32" to="55083473#2"/>
    <trip id="194" depart="194" from="55083473#1.4.32" to="55083473#2"/>
    <trip id="195" depart="195" from="55083473#1.4.32" to="55083473#2"/>
    <trip id="196" depart="196" from="55083473#1.4.32" to="55083473#2"/>
    <trip id="197" depart="197" from="55083473#1.4.32" to="55083473#2"/>
    <trip id="198" depart="198" from="55083473#1.4.32" to="55083473#2"/>
    <trip id="199" depart="199" from="55083473#1.4.32" to="55083473#2"/>
    <trip id="200" depart="200" from="55083473#1.4.32" to="55083473#2"/>
    <trip id="201" depart="201" from="55083473#1.4.32" to="55083473#2"/>
    <trip id="202" depart="202" from="55083473#1.4.32" to="55083473#2"/>
    <trip id="203" depart="203" from="55083473#1.4.32" to="55083473#2"/>
    <trip id="204" depart="204" from="55083473#1.4.32" to="55083473#2"/>
    <trip id="205" depart="205" from="55083473#1.4.32" to="55083473#2"/>
    <trip id="206" depart="206" from="55083473#1.4.32" to="55083473#2"/>
    <trip id="207" depart="207" from="55083473#1.4.32" to="55083473#2"/>
    <trip id="208" depart="208" from="55083473#1.4.32" to="55083473#2"/>
    <trip id="209" depart="209" from="55083473#1.4.32" to="55083473#2"/>
    <trip id="210" depart="210" from="55083473#1.4.32" to="55083473#2"/>
    <trip id="211" depart="211" from="55083473#1.4.32" to="55083473#2"/>
    <trip id="212" depart="212" from="55083473#1.4.32" to="55083473#2"/>
    <trip id="213" depart="213" from="55083473#1.4.32" to="55083473#2"/>
    <trip id="214" depart="214" from="55083473#1.4.32" to="55083473#2"/>
    <trip id="215" depart="215" from="55083473#1.4.32" to="55083473#2"/>
    <trip id="216" depart="216" from="55083473#1.4.32" to="55083473#2"/>
    <trip id="217" depart="217" from="55083473#1.4.32" to="55083473#2"/>
    <trip id="218" depart="218" from="55083473#1.4.32" to="55083473#2"/>
    <trip id="219" depart="219" from="55083473#1.4.32" to="55083473#2"/>
    <trip id="220" depart="220" from="55083473#1.4.32" to="55083473#2"/>
    <trip id="221" depart="221" from="55083473#1.4.32" to="55083473#2"/>
    <trip id="222" depart="222" from="55083473#1.4.32" to="55083473#2"/>
    <trip id="223" depart="223" from="55083473#1.4.32" to="55083473#2"/>
    <trip id="224" depart="224" from="55083473#1.4.32" to="55083473#2"/>
    <trip id="225" depart="225" from="55083473#1.4.32" to="55083473#2"/>
    <trip id="226" depart="226" from="55083473#1.4.32" to="55083473#2"/>
    <trip id="227" depart="227" from="55083473#1.4.32" to="55083473#2"/>
    <trip id="228" depart="228" from="55083473#1.4.32" to="55083473#2"/>
    <trip id="229" depart="229" from="55083473#1.4.32" to="55083473#2"/>
    <trip id="230" depart="230" from="55083473#1.4.32" to="55083473#2"/>
    <trip id="231" depart="231" from="55083473#1.4.32" to="55083473#2"/>
    <trip id="232" depart="232" from="55083473#1.4.32" to="55083473#2"/>
    <trip id="233" depart="233" from="55083473#1.4.32" to="55083473#2"/>
    <trip id="234" depart="234" from="55083473#1.4.32" to="55083473#2"/>
    <trip id="235" depart="235" from="55083473#1.4.32" to="55083473#2"/>
    <trip id="236" depart="236" from="55083473#1.4.32" to="55083473#2"/>
    <trip id="237" depart="237" from="55083473#1.4.32" to="55083473#2"/>
    <trip id="238" depart="238" from="55083473#1.4.32" to="55083473#2"/>
    <trip id="239" depart="239" from="55083473#1.4.32" to="55083473#2"/>
    <trip id="240" depart="240" from="55083473#1.4.32" to="55083473#2"/>
    <trip id="241" depart="241" from="55083473#1.4.32" to="55083473#2"/>
    <trip id="242" depart="242" from="55083473#1.4.32" to="55083473#2"/>
    <trip id="243" depart="243" from="55083473#1.4.32" to="55083473#2"/>
    <trip id="244" depart="244" from="55083473#1.4.32" to="55083473#2"/>
    <trip id="245" depart="245" from="55083473#1.4.32" to="55083473#2"/>
    <trip id="246" depart="246" from="55083473#1.4.32" to="55083473#2"/>
    <trip id="247" depart="247" from="55083473#1.4.32" to="55083473#2"/>
    <trip id="248" depart="248" from="55083473#1.4.32" to="55083473#2"/>
    <trip id="249" depart="249" from="55083473#1.4.32" to="55083473#2"/>
    <trip id="250" depart="250" from="55083473#1.4.32" to="55083473#2"/>
    <trip id="251" depart="251" from="55083473#1.4.32" to="55083473#2"/>
    <trip id="252" depart="252" from="55083473#1.4.32" to="55083473#2"/>
    <trip id="253" depart="253" from="55083473#1.4.32" to="55083473#2"/>
    <trip id="254" depart="254" from="55083473#1.4.32" to="55083473#2"/>
    <trip id="255" depart="255" from="55083473#1.4.32" to="55083473#2"/>
    <trip id="256" depart="256" from="55083473#1.4.32" to="55083473#2"/>
    <trip id="257" depart="257" from="55083473#1.4.32" to="55083473#2"/>
    <trip id="258" depart="258" from="55083473#1.4.32" to="55083473#2"/>
    <trip id="259" depart="259" from="55083473#1.4.32" to="55083473#2"/>
    <trip id="260" depart="260" from="55083473#1.4.32" to="55083473#2"/>
    <trip id="261" depart="261" from="55083473#1.4.32" to="55083473#2"/>
    <trip id="262" depart="262" from="55083473#1.4.32" to="55083473#2"/>
    <trip id="263" depart="263" from="55083473#1.4.32" to="55083473#2"/>
    <trip id="264" depart="264" from="55083473#1.4.32" to="55083473#2"/>
    <trip id="265" depart="265" from="55083473#1.4.32" to="55083473#2"/>
    <trip id="266" depart="266" from="55083473#1.4.32" to="55083473#2"/>
    <trip id="267" depart="267" from="55083473#1.4.32" to="55083473#2"/>
    <trip id="268" depart="268" from="55083473#1.4.32" to="55083473#2"/>
    <trip id="269" depart="269" from="55083473#1.4.32" to="55083473#2"/>
    <trip id="270" depart="270" from="55083473#1.4.32" to="55083473#2"/>
    <trip id="271" depart="271" from="55083473#1.4.32" to="55083473#2"/>
    <trip id="272" depart="272" from="55083473#1.4.32" to="55083473#2"/>
    <trip id="273" depart="273" from="55083473#1.4.32" to="55083473#2"/>
    <trip id="274" depart="274" from="55083473#1.4.32" to="55083473#2"/>
    <trip id="275" depart="275" from="55083473#1.4.32" to="55083473#2"/>
    <trip id="276" depart="276" from="55083473#1.4.32" to="55083473#2"/>
    <trip id="277" depart="277" from="55083473#1.4.32" to="55083473#2"/>
    <trip id="278" depart="278" from="55083473#1.4.32" to="55083473#2"/>
    <trip id="279" depart="279" from="55083473#1.4.32" to="55083473#2"/>
    <trip id="280" depart="280" from="55083473#1.4.32" to="55083473#2"/>
    <trip id="281" depart="281" from="55083473#1.4.32" to="55083473#2"/>
    <trip id="282" depart="282" from="55083473#1.4.32" to="55083473#2"/>
    <trip id="283" depart="283" from="55083473#1.4.32" to="55083473#2"/>
    <trip id="284" depart="284" from="55083473#1.4.32" to="55083473#2"/>
    <trip id="285" depart="285" from="55083473#1.4.32" to="55083473#2"/>
    <trip id="286" depart="286" from="55083473#1.4.32" to="55083473#2"/>
    <trip id="287" depart="287" from="55083473#1.4.32" to="55083473#2"/>
    <trip id="288" depart="288" from="55083473#1.4.32" to="55083473#2"/>
    <trip id="289" depart="289" from="55083473#1.4.32" to="55083473#2"/>
    <trip id="290" depart="290" from="55083473#1.4.32" to="55083473#2"/>
    <trip id="291" depart="291" from="55083473#1.4.32" to="55083473#2"/>
    <trip id="292" depart="292" from="55083473#1.4.32" to="55083473#2"/>
    <trip id="293" depart="293" from="55083473#1.4.32" to="55083473#2"/>
    <trip id="294" depart="294" from="55083473#1.4.32" to="55083473#2"/>
    <trip id="295" depart="295" from="55083473#1.4.32" to="55083473#2"/>
    <trip id="296" depart="296" from="55083473#1.4.32" to="55083473#2"/>
    <trip id="297" depart="297" from="55083473#1.4.32" to="55083473#2"/>
    <trip id="298" depart="298" from="55083473#1.4.32" to="55083473#2"/>
    <trip id="299" depart="299" from="55083473#1.4.32" to="55083473#2"/>
    <trip id="300" depart="300" from="55083473#1.4.32" to="55083473#2"/>
    <trip id="301" depart="301" from="55083473#1.4.32" to="55083473#2"/>
    <trip id="302" depart="302" from="55083473#1.4.32" to="55083473#2"/>
    <trip id="303" depart="303" from="55083473#1.4.32" to="55083473#2"/>
    <trip id="304" depart="304" from="55083473#1.4.32" to="55083473#2"/>
    <trip id="305" depart="305" from="55083473#1.4.32" to="55083473#2"/>
    <trip id="306" depart="306" from="55083473#1.4.32" to="55083473#2"/>
    <trip id="307" depart="307" from="55083473#1.4.32" to="55083473#2"/>
    <trip id="308" depart="308" from="55083473#1.4.32" to="55083473#2"/>
    <trip id="309" depart="309" from="55083473#1.4.32" to="55083473#2"/>
    <trip id="310" depart="310" from="55083473#1.4.32" to="55083473#2"/>
    <trip id="311" depart="311" from="55083473#1.4.32" to="55083473#2"/>
    <trip id="312" depart="312" from="55083473#1.4.32" to="55083473#2"/>
    <trip id="313" depart="313" from="55083473#1.4.32" to="55083473#2"/>
    <trip id="314" depart="314" from="55083473#1.4.32" to="55083473#2"/>
    <trip id="315" depart="315" from="55083473#1.4.32" to="55083473#2"/>
    <trip id="316" depart="316" from="55083473#1.4.32" to="55083473#2"/>
    <trip id="317" depart="317" from="55083473#1.4.32" to="55083473#2"/>
    <trip id="318" depart="318" from="55083473#1.4.32" to="55083473#2"/>
    <trip id="319" depart="319" from="55083473#1.4.32" to="55083473#2"/>
    <trip id="320" depart="320" from="55083473#1.4.32" to="55083473#2"/>
    <trip id="321" depart="321" from="55083473#1.4.32" to="55083473#2"/>
    <trip id="322" depart="322" from="55083473#1.4.32" to="55083473#2"/>
    <trip id="323" depart="323" from="55083473#1.4.32" to="55083473#2"/>
    <trip id="324" depart="324" from="55083473#1.4.32" to="55083473#2"/>
    <trip id="325" depart="325" from="55083473#1.4.32" to="55083473#2"/>
    <trip id="326" depart="326" from="55083473#1.4.32" to="55083473#2"/>
    <trip id="327" depart="327" from="55083473#1.4.32" to="55083473#2"/>
    <trip id="328" depart="328" from="55083473#1.4.32" to="55083473#2"/>
    <trip id="329" depart="329" from="55083473#1.4.32" to="55083473#2"/>
    <trip id="330" depart="330" from="55083473#1.4.32" to="55083473#2"/>
    <trip id="331" depart="331" from="55083473#1.4.32" to="55083473#2"/>
    <trip id="332" depart="332" from="55083473#1.4.32" to="55083473#2"/>
    <trip id="333" depart="333" from="55083473#1.4.32" to="55083473#2"/>
    <trip id="334" depart="334" from="55083473#1.4.32" to="55083473#2"/>
    <trip id="335" depart="335" from="55083473#1.4.32" to="55083473#2"/>
    <trip id="336" depart="336" from="55083473#1.4.32" to="55083473#2"/>
    <trip id="337" depart="337" from="55083473#1.4.32" to="55083473#2"/>
    <trip id="338" depart="338" from="55083473#1.4.32" to="55083473#2"/>
    <trip id="339" depart="339" from="55083473#1.4.32" to="55083473#2"/>
    <trip id="340" depart="340" from="55083473#1.4.32" to="55083473#2"/>
    <trip id="341" depart="341" from="55083473#1.4.32" to="55083473#2"/>
    <trip id="342" depart="342" from="55083473#1.4.32" to="55083473#2"/>
    <trip id="343" depart="343" from="55083473#1.4.32" to="55083473#2"/>
    <trip id="344" depart="344" from="55083473#1.4.32" to="55083473#2"/>
    <trip id="345" depart="345" from="55083473#1.4.32" to="55083473#2"/>
    <trip id="346" depart="346" from="55083473#1.4.32" to="55083473#2"/>
    <trip id="347" depart="347" from="55083473#1.4.32" to="55083473#2"/>
    <trip id="348" depart="348" from="55083473#1.4.32" to="55083473#2"/>
    <trip id="349" depart="349" from="55083473#1.4.32" to="55083473#2"/>
    <trip id="350" depart="350" from="55083473#1.4.32" to="55083473#2"/>
    <trip id="351" depart="351" from="55083473#1.4.32" to="55083473#2"/>
    <trip id="352" depart="352" from="55083473#1.4.32" to="55083473#2"/>
    <trip id="353" depart="353" from="55083473#1.4.32" to="55083473#2"/>
    <trip id="354" depart="354" from="55083473#1.4.32" to="55083473#2"/>
    <trip id="355" depart="355" from="55083473#1.4.32" to="55083473#2"/>
    <trip id="356" depart="356" from="55083473#1.4.32" to="55083473#2"/>
    <trip id="357" depart="357" from="55083473#1.4.32" to="55083473#2"/>
    <trip id="358" depart="358" from="55083473#1.4.32" to="55083473#2"/>
    <trip id="359" depart="359" from="55083473#1.4.32" to="55083473#2"/>
    <trip id="360" depart="360" from="55083473#1.4.32" to="55083473#2"/>
    <trip id="361" depart="361" from="55083473#1.4.32" to="55083473#2"/>
    <trip id="362" depart="362" from="55083473#1.4.32" to="55083473#2"/>
    <trip id="363" depart="363" from="55083473#1.4.32" to="55083473#2"/>
    <trip id="364" depart="364" from="55083473#1.4.32" to="55083473#2"/>
    <trip id="365" depart="365" from="55083473#1.4.32" to="55083473#2"/>
    <trip id="366" depart="366" from="55083473#1.4.32" to="55083473#2"/>
    <trip id="367" depart="367" from="55083473#1.4.32" to="55083473#2"/>
    <trip id="368" depart="368" from="55083473#1.4.32" to="55083473#2"/>
    <trip id="369" depart="369" from="55083473#1.4.32" to="55083473#2"/>
    <trip id="370" depart="370" from="55083473#1.4.32" to="55083473#2"/>
    <trip id="371" depart="371" from="55083473#1.4.32" to="55083473#2"/>
    <trip id="372" depart="372" from="55083473#1.4.32" to="55083473#2"/>
    <trip id="373" depart="373" from="55083473#1.4.32" to="55083473#2"/>
    <trip id="374" depart="374" from="55083473#1.4.32" to="55083473#2"/>
    <trip id="375" depart="375" from="55083473#1.4.32" to="55083473#2"/>
    <trip id="376" depart="376" from="55083473#1.4.32" to="55083473#2"/>
    <trip id="377" depart="377" from="55083473#1.4.32" to="55083473#2"/>
    <trip id="378" depart="378" from="55083473#1.4.32" to="55083473#2"/>
    <trip id="379" depart="379" from="55083473#1.4.32" to="55083473#2"/>
    <trip id="380" depart="380" from="55083473#1.4.32" to="55083473#2"/>
    <trip id="381" depart="381" from="55083473#1.4.32" to="55083473#2"/>
    <trip id="382" depart="382" from="55083473#1.4.32" to="55083473#2"/>
    <trip id="383" depart="383" from="55083473#1.4.32" to="55083473#2"/>
    <trip id="384" depart="384" from="55083473#1.4.32" to="55083473#2"/>
    <trip id="385" depart="385" from="55083473#1.4.32" to="55083473#2"/>
    <trip id="386" depart="386" from="55083473#1.4.32" to="55083473#2"/>
    <trip id="387" depart="387" from="55083473#1.4.32" to="55083473#2"/>
    <trip id="388" depart="388" from="55083473#1.4.32" to="55083473#2"/>
    <trip id="389" depart="389" from="55083473#1.4.32" to="55083473#2"/>
    <trip id="390" depart="390" from="55083473#1.4.32" to="55083473#2"/>
    <trip id="391" depart="391" from="55083473#1.4.32" to="55083473#2"/>
    <trip id="392" depart="392" from="55083473#1.4.32" to="55083473#2"/>
    <trip id="393" depart="393" from="55083473#1.4.32" to="55083473#2"/>
    <trip id="394" depart="394" from="55083473#1.4.32" to="55083473#2"/>
    <trip id="395" depart="395" from="55083473#1.4.32" to="55083473#2"/>
    <trip id="396" depart="396" from="55083473#1.4.32" to="55083473#2"/>
    <trip id="397" depart="397" from="55083473#1.4.32" to="55083473#2"/>
    <trip id="398" depart="398" from="55083473#1.4.32" to="55083473#2"/>
    <trip id="399" depart="399" from="55083473#1.4.32" to="55083473#2"/>
    <trip id="400" depart="400" from="830653154#7" to="830650861#5"/>
    <trip id="401" depart="401" from="219823957" to="29496808#2.341"/>
    <trip id="402" depart="402" from="830650862" to="185495393"/>
    <trip id="403" depart="403" from="833484977" to="830653153"/>
    <trip id="404" depart="404" from="29496808#0" to="833484978"/>
</routes>