<?xml version="1.0" encoding="UTF-8"?>

<!-- generated on 2023-10-27 17:34:24 by Eclipse SUMO netedit Version 1.18.0
<configuration xmlns:xsi="http://www.w3.org/2001/XMLSchema-instance" xsi:noNamespaceSchemaLocation="http://sumo.dlr.de/xsd/neteditConfiguration.xsd">

    <input>
        <sumo-net-file value="/Users/christtzm/tzm/PyWork/trans_llm/TrafficGPT/real-world-simulation-withTLS/gen_net/test4.net.xml"/>
    </input>

    <output>
        <output-file value="/Users/christtzm/tzm/PyWork/trans_llm/TrafficGPT/real-world-simulation-withTLS/gen_net/test4.net.xml"/>
    </output>

    <processing>
        <geometry.min-radius.fix.railways value="false"/>
        <geometry.max-grade.fix value="false"/>
        <offset.disable-normalization value="true"/>
        <lefthand value="0"/>
    </processing>

    <junctions>
        <no-turnarounds value="true"/>
        <junctions.corner-detail value="5"/>
        <junctions.limit-turn-speed value="5.50"/>
        <rectangular-lane-cut value="0"/>
    </junctions>

    <pedestrian>
        <walkingareas value="0"/>
    </pedestrian>

</configuration>
-->

<net version="1.16" junctionCornerDetail="5" limitTurnSpeed="5.50" xmlns:xsi="http://www.w3.org/2001/XMLSchema-instance" xsi:noNamespaceSchemaLocation="http://sumo.dlr.de/xsd/net_file.xsd">

    <location netOffset="-766115.41,-2534569.14" convBoundary="0.00,15680.16,5807.80,25896.36" origBoundary="113.543701,22.882896,113.860167,23.131650" projParameter="+proj=utm +zone=49 +ellps=WGS84 +datum=WGS84 +units=m +no_defs"/>

    <type id="highway.motorway" priority="14" numLanes="2" speed="39.44" allow="private emergency authority army vip passenger hov taxi bus coach delivery truck trailer motorcycle evehicle custom1 custom2" oneway="1"/>
    <type id="highway.motorway_link" priority="9" numLanes="1" speed="22.22" allow="private emergency authority army vip passenger hov taxi bus coach delivery truck trailer motorcycle evehicle custom1 custom2" oneway="1"/>
    <type id="highway.primary" priority="12" numLanes="2" speed="27.78" disallow="tram rail_urban rail rail_electric rail_fast ship" oneway="0"/>
    <type id="highway.primary_link" priority="7" numLanes="1" speed="22.22" disallow="tram rail_urban rail rail_electric rail_fast ship" oneway="0"/>
    <type id="highway.secondary" priority="11" numLanes="1" speed="27.78" disallow="tram rail_urban rail rail_electric rail_fast ship" oneway="0"/>
    <type id="highway.tertiary" priority="10" numLanes="1" speed="22.22" disallow="tram rail_urban rail rail_electric rail_fast ship" oneway="0"/>

    <edge id=":10736837074_0" function="internal">
        <lane id=":10736837074_0_0" index="0" disallow="tram rail_urban rail rail_electric rail_fast ship" speed="27.78" length="9.08" shape="5032.31,16978.03 5026.64,16971.02"/>
        <lane id=":10736837074_0_1" index="1" disallow="tram rail_urban rail rail_electric rail_fast ship" speed="27.78" length="9.08" shape="5034.84,16976.08 5029.10,16968.97"/>
    </edge>
    <edge id=":10736837074_2" function="internal">
        <lane id=":10736837074_2_0" index="0" disallow="tram rail_urban rail rail_electric rail_fast ship" speed="4.70" length="5.76" shape="5033.37,16968.34 5032.51,16969.82 5031.51,16970.41 5030.37,16970.13 5029.10,16968.97"/>
    </edge>
    <edge id=":10736837080_0" function="internal">
        <lane id=":10736837080_0_0" index="0" disallow="tram rail_urban rail rail_electric rail_fast ship" speed="27.78" length="16.79" shape="5026.52,16970.87 5023.36,16967.10 5021.13,16964.57 5018.74,16962.21 5015.10,16958.91"/>
        <lane id=":10736837080_0_1" index="1" disallow="tram rail_urban rail rail_electric rail_fast ship" speed="27.78" length="16.79" shape="5028.97,16968.81 5025.73,16964.94 5023.43,16962.34 5020.97,16959.91 5017.22,16956.52"/>
    </edge>
    <edge id=":10736837080_2" function="internal">
        <lane id=":10736837080_2_0" index="0" disallow="tram rail_urban rail rail_electric rail_fast ship" speed="5.54" length="8.96" shape="5028.97,16968.81 5026.95,16966.02 5026.17,16963.93 5026.63,16962.55 5028.33,16961.88"/>
        <lane id=":10736837080_2_1" index="1" disallow="tram rail_urban rail rail_electric rail_fast ship" speed="4.34" length="4.90" shape="5028.97,16968.81 5027.89,16967.30 5027.49,16966.17 5027.78,16965.42 5028.76,16965.05"/>
    </edge>
    <edge id=":1419167322_0" function="internal">
        <lane id=":1419167322_0_0" index="0" disallow="tram rail_urban rail rail_electric rail_fast ship" speed="16.37" length="10.76" shape="4908.65,16838.77 4909.56,16841.62 4910.10,16843.66 4911.00,16845.47 4912.97,16847.59"/>
        <lane id=":1419167322_0_1" index="1" disallow="tram rail_urban rail rail_electric rail_fast ship" speed="17.53" length="10.76" shape="4905.67,16839.92 4906.74,16843.18 4907.43,16845.50 4908.53,16847.54 4910.83,16849.97"/>
    </edge>
    <edge id=":1419167322_2" function="internal">
        <lane id=":1419167322_2_0" index="0" disallow="tram rail_urban rail rail_electric rail_fast ship" speed="22.35" length="10.76" shape="4902.76,16842.89 4906.00,16843.90 4908.28,16844.54 4910.35,16845.53 4912.97,16847.59"/>
        <lane id=":1419167322_2_1" index="1" disallow="tram rail_urban rail rail_electric rail_fast ship" speed="21.11" length="10.76" shape="4901.68,16845.90 4904.57,16846.78 4906.62,16847.31 4908.49,16848.16 4910.83,16849.97"/>
    </edge>
    <edge id=":1419167324_0" function="internal">
        <lane id=":1419167324_0_0" index="0" disallow="tram rail_urban rail rail_electric rail_fast ship" speed="14.63" length="17.12" shape="4687.61,16754.64 4691.23,16757.66 4694.56,16758.36 4698.40,16758.12 4703.55,16758.32"/>
        <lane id=":1419167324_0_1" index="1" disallow="tram rail_urban rail rail_electric rail_fast ship" speed="14.83" length="17.58" shape="4687.61,16754.64 4691.20,16758.24 4694.30,16760.01 4697.92,16760.81 4703.10,16761.49"/>
    </edge>
    <edge id=":1419167324_2" function="internal">
        <lane id=":1419167324_2_0" index="0" disallow="tram rail_urban rail rail_electric rail_fast ship" speed="27.78" length="18.04" shape="4687.61,16754.64 4691.23,16758.36 4694.11,16760.46 4697.27,16762.25 4701.72,16765.03"/>
        <lane id=":1419167324_2_1" index="1" disallow="tram rail_urban rail rail_electric rail_fast ship" speed="27.78" length="18.04" shape="4685.20,16756.75 4688.97,16760.64 4691.98,16762.86 4695.27,16764.76 4699.92,16767.67"/>
    </edge>
    <edge id=":1419167325_0" function="internal">
        <lane id=":1419167325_0_0" index="0" disallow="tram rail_urban rail rail_electric rail_fast ship" speed="27.78" length="0.25" shape="4444.32,15982.92 4444.37,15983.11"/>
        <lane id=":1419167325_0_1" index="1" disallow="tram rail_urban rail rail_electric rail_fast ship" speed="27.78" length="0.25" shape="4441.24,15983.78 4441.32,15984.07"/>
    </edge>
    <edge id=":2287714157_0" function="internal">
        <lane id=":2287714157_0_0" index="0" allow="private emergency authority army vip passenger hov taxi bus coach delivery truck trailer motorcycle evehicle custom1 custom2" speed="22.22" length="0.30" shape="4828.21,16044.18 4827.95,16044.32"/>
    </edge>
    <edge id=":2287714159_0" function="internal">
        <lane id=":2287714159_0_0" index="0" allow="private emergency authority army vip passenger hov taxi bus coach delivery truck trailer motorcycle evehicle custom1 custom2" speed="22.22" length="0.10" shape="4975.96,16080.91 4975.96,16080.91"/>
    </edge>
    <edge id=":2287714160_0" function="internal">
        <lane id=":2287714160_0_0" index="0" allow="private emergency authority army vip passenger hov taxi bus coach delivery truck trailer motorcycle evehicle custom1 custom2" speed="22.22" length="0.30" shape="4776.50,16206.29 4776.76,16206.13"/>
    </edge>
    <edge id=":2287714171_0" function="internal">
        <lane id=":2287714171_0_0" index="0" allow="private emergency authority army vip passenger hov taxi bus coach delivery truck trailer motorcycle evehicle custom1 custom2" speed="22.22" length="0.10" shape="5120.48,16283.55 5120.48,16283.55"/>
    </edge>
    <edge id=":2287714175_0" function="internal">
        <lane id=":2287714175_0_0" index="0" allow="private emergency authority army vip passenger hov taxi bus coach delivery truck trailer motorcycle evehicle custom1 custom2" speed="22.22" length="0.28" shape="5101.35,16294.11 5101.28,16294.15 5101.23,16294.18 5101.19,16294.22 5101.12,16294.27"/>
    </edge>
    <edge id=":2287714180_0" function="internal">
        <lane id=":2287714180_0_0" index="0" allow="private emergency authority army vip passenger hov taxi bus coach delivery truck trailer motorcycle evehicle custom1 custom2" speed="22.22" length="0.10" shape="4920.55,16414.28 4920.55,16414.28"/>
    </edge>
    <edge id=":2287714189_0" function="internal">
        <lane id=":2287714189_0_0" index="0" allow="private emergency authority army vip passenger hov taxi bus coach delivery truck trailer motorcycle evehicle custom1 custom2" speed="30.83" length="41.56" shape="4508.05,16511.56 4501.91,16513.72 4491.98,16517.25 4480.40,16521.70 4469.35,16526.64"/>
    </edge>
    <edge id=":2287714189_1" function="internal">
        <lane id=":2287714189_1_0" index="0" allow="private emergency authority army vip passenger hov taxi bus coach delivery truck trailer motorcycle evehicle custom1 custom2" speed="39.44" length="41.56" shape="4506.61,16508.27 4469.35,16526.64"/>
        <lane id=":2287714189_1_1" index="1" allow="private emergency authority army vip passenger hov taxi bus coach delivery truck trailer motorcycle evehicle custom1 custom2" speed="39.44" length="41.56" shape="4505.19,16505.40 4467.92,16523.77"/>
        <lane id=":2287714189_1_2" index="2" allow="private emergency authority army vip passenger hov taxi bus coach delivery truck trailer motorcycle evehicle custom1 custom2" speed="39.44" length="41.56" shape="4503.77,16502.54 4466.49,16520.91"/>
    </edge>
    <edge id=":2287722217_0" function="internal">
        <lane id=":2287722217_0_0" index="0" disallow="tram rail_urban rail rail_electric rail_fast ship" speed="27.78" length="10.35" shape="4970.31,15952.88 4973.11,15954.31 4974.87,15955.55 4976.55,15956.94 4979.08,15958.82"/>
        <lane id=":2287722217_0_1" index="1" disallow="tram rail_urban rail rail_electric rail_fast ship" speed="27.78" length="10.35" shape="4968.99,15955.79 4971.63,15957.15 4973.29,15958.34 4974.87,15959.67 4977.27,15961.46"/>
    </edge>
    <edge id=":2287722217_2" function="internal">
        <lane id=":2287722217_2_0" index="0" allow="private emergency authority army vip passenger hov taxi bus coach delivery truck trailer motorcycle evehicle custom1 custom2" speed="9.28" length="10.08" shape="4968.99,15955.79 4970.79,15956.97 4972.26,15958.73 4973.41,15961.07 4974.24,15963.99"/>
    </edge>
    <edge id=":2287722220_0" function="internal">
        <lane id=":2287722220_0_0" index="0" allow="private emergency authority army vip passenger hov taxi bus coach delivery truck trailer motorcycle evehicle custom1 custom2" speed="27.77" length="32.23" shape="5691.44,15753.54 5695.98,15751.32 5702.58,15748.08 5710.60,15743.59 5719.38,15737.60"/>
    </edge>
    <edge id=":2287722220_1" function="internal">
        <lane id=":2287722220_1_0" index="0" allow="private emergency authority army vip passenger hov taxi bus coach delivery truck trailer motorcycle evehicle custom1 custom2" speed="33.33" length="32.23" shape="5693.47,15756.70 5719.38,15737.60"/>
        <lane id=":2287722220_1_1" index="1" allow="private emergency authority army vip passenger hov taxi bus coach delivery truck trailer motorcycle evehicle custom1 custom2" speed="33.33" length="32.23" shape="5695.38,15759.27 5721.32,15740.14"/>
        <lane id=":2287722220_1_2" index="2" allow="private emergency authority army vip passenger hov taxi bus coach delivery truck trailer motorcycle evehicle custom1 custom2" speed="33.33" length="32.23" shape="5697.29,15761.83 5723.26,15742.69"/>
    </edge>
    <edge id=":2287722223_0" function="internal">
        <lane id=":2287722223_0_0" index="0" allow="private emergency authority army vip passenger hov taxi bus coach delivery truck trailer motorcycle evehicle custom1 custom2" speed="22.22" length="0.10" shape="4895.79,16008.09 4895.79,16008.09"/>
    </edge>
    <edge id=":2287722225_0" function="internal">
        <lane id=":2287722225_0_0" index="0" disallow="tram rail_urban rail rail_electric rail_fast ship" speed="27.78" length="16.44" shape="4661.98,16014.32 4666.34,16012.22 4669.40,16010.94 4672.40,16009.53 4676.55,16007.07"/>
        <lane id=":2287722225_0_1" index="1" disallow="tram rail_urban rail rail_electric rail_fast ship" speed="27.78" length="16.44" shape="4663.46,16017.16 4667.89,16015.02 4671.01,16013.71 4674.06,16012.27 4678.28,16009.77"/>
    </edge>
    <edge id=":2287722225_2" function="internal">
        <lane id=":2287722225_2_0" index="0" allow="private emergency authority army vip passenger hov taxi bus coach delivery truck trailer motorcycle evehicle custom1 custom2" speed="25.00" length="16.47" shape="4666.03,16020.68 4668.47,16018.12 4670.90,16015.57 4673.95,16012.85 4678.28,16009.77"/>
    </edge>
    <edge id=":2287722241_0" function="internal">
        <lane id=":2287722241_0_0" index="0" allow="private emergency authority army vip passenger hov taxi bus coach delivery truck trailer motorcycle evehicle custom1 custom2" speed="22.22" length="22.12" shape="4791.30,16065.92 4787.70,16069.12 4783.64,16073.79 4779.76,16078.67 4776.71,16082.49"/>
    </edge>
    <edge id=":2287722241_1" function="internal">
        <lane id=":2287722241_1_0" index="0" allow="private emergency authority army vip passenger hov taxi bus coach delivery truck trailer motorcycle evehicle custom1 custom2" speed="22.22" length="22.14" shape="4791.30,16065.92 4787.41,16068.83 4782.64,16072.80 4777.95,16076.87 4774.28,16080.06"/>
    </edge>
    <edge id=":2287722243_0" function="internal">
        <lane id=":2287722243_0_0" index="0" allow="private emergency authority army vip passenger hov taxi bus coach delivery truck trailer motorcycle evehicle custom1 custom2" speed="22.22" length="0.34" shape="5041.33,16084.84 5041.43,16084.84 5041.50,16084.83 5041.57,16084.84 5041.67,16084.85"/>
    </edge>
    <edge id=":2287722252_0" function="internal">
        <lane id=":2287722252_0_0" index="0" disallow="tram rail_urban rail rail_electric rail_fast ship" speed="16.45" length="31.36" shape="4584.64,16104.80 4581.79,16094.53 4580.68,16085.86 4581.32,16078.79 4583.71,16073.32"/>
        <lane id=":2287722252_0_1" index="1" disallow="tram rail_urban rail rail_electric rail_fast ship" speed="15.88" length="31.36" shape="4587.92,16104.51 4585.13,16094.67 4583.93,16086.50 4584.33,16079.99 4586.33,16075.15"/>
    </edge>
    <edge id=":2287722252_2" function="internal">
        <lane id=":2287722252_2_0" index="0" disallow="tram rail_urban rail rail_electric rail_fast ship" speed="27.78" length="31.41" shape="4576.14,16104.47 4578.88,16097.26 4579.88,16088.86 4580.90,16080.48 4583.71,16073.32"/>
        <lane id=":2287722252_2_1" index="1" disallow="tram rail_urban rail rail_electric rail_fast ship" speed="27.78" length="31.41" shape="4579.88,16104.66 4582.44,16097.70 4583.06,16089.87 4583.70,16082.05 4586.33,16075.15"/>
    </edge>
    <edge id=":2287722301_0" function="internal">
        <lane id=":2287722301_0_0" index="0" allow="private emergency authority army vip passenger hov taxi bus coach delivery truck trailer motorcycle evehicle custom1 custom2" speed="22.22" length="12.32" shape="4729.27,16144.58 4718.59,16150.73"/>
    </edge>
    <edge id=":2287722301_1" function="internal">
        <lane id=":2287722301_1_0" index="0" allow="private emergency authority army vip passenger hov taxi bus coach delivery truck trailer motorcycle evehicle custom1 custom2" speed="22.22" length="12.33" shape="4726.91,16141.77 4724.86,16144.43 4723.17,16146.75 4721.26,16148.81 4718.59,16150.73"/>
    </edge>
    <edge id=":2287722308_0" function="internal">
        <lane id=":2287722308_0_0" index="0" disallow="tram rail_urban rail rail_electric rail_fast ship" speed="26.69" length="36.46" shape="4619.32,16181.01 4614.78,16173.72 4609.10,16165.72 4602.72,16158.44 4596.08,16153.34"/>
        <lane id=":2287722308_0_1" index="1" disallow="tram rail_urban rail rail_electric rail_fast ship" speed="26.69" length="36.46" shape="4622.07,16179.38 4617.59,16172.04 4612.03,16163.92 4605.78,16156.53 4599.21,16151.38"/>
    </edge>
    <edge id=":2287722308_2" function="internal">
        <lane id=":2287722308_2_0" index="0" disallow="tram rail_urban rail rail_electric rail_fast ship" speed="27.78" length="35.85" shape="4622.07,16179.38 4602.83,16149.04"/>
        <lane id=":2287722308_2_1" index="1" disallow="tram rail_urban rail rail_electric rail_fast ship" speed="27.78" length="35.85" shape="4622.07,16179.38 4605.68,16147.58"/>
    </edge>
    <edge id=":2287722316_0" function="internal">
        <lane id=":2287722316_0_0" index="0" allow="private emergency authority army vip passenger hov taxi bus coach delivery truck trailer motorcycle evehicle custom1 custom2" speed="22.22" length="8.17" shape="4711.34,16266.68 4718.81,16263.36"/>
    </edge>
    <edge id=":2287722316_1" function="internal">
        <lane id=":2287722316_1_0" index="0" allow="private emergency authority army vip passenger hov taxi bus coach delivery truck trailer motorcycle evehicle custom1 custom2" speed="10.32" length="8.11" shape="4714.11,16269.59 4715.09,16267.36 4715.78,16265.74 4716.81,16264.49 4718.81,16263.36"/>
    </edge>
    <edge id=":2287722317_0" function="internal">
        <lane id=":2287722317_0_0" index="0" disallow="tram rail_urban rail rail_electric rail_fast ship" speed="27.78" length="13.35" shape="4697.89,16330.32 4692.61,16318.20"/>
        <lane id=":2287722317_0_1" index="1" disallow="tram rail_urban rail rail_electric rail_fast ship" speed="27.78" length="13.35" shape="4700.90,16329.24 4695.53,16316.89"/>
    </edge>
    <edge id=":2287722317_2" function="internal">
        <lane id=":2287722317_2_0" index="0" disallow="tram rail_urban rail rail_electric rail_fast ship" speed="17.44" length="13.28" shape="4700.90,16329.24 4699.85,16325.31 4699.74,16322.27 4700.20,16319.46 4700.83,16316.20"/>
    </edge>
    <edge id=":2287722318_0" function="internal">
        <lane id=":2287722318_0_0" index="0" disallow="tram rail_urban rail rail_electric rail_fast ship" speed="27.78" length="0.26" shape="4704.65,16349.05 4704.53,16348.74"/>
        <lane id=":2287722318_0_1" index="1" disallow="tram rail_urban rail rail_electric rail_fast ship" speed="27.78" length="0.26" shape="4707.61,16347.83 4707.54,16347.66"/>
    </edge>
    <edge id=":2289479262_0" function="internal">
        <lane id=":2289479262_0_0" index="0" disallow="tram rail_urban rail rail_electric rail_fast ship" speed="27.78" length="0.28" shape="4433.04,15984.70 4432.98,15984.46"/>
        <lane id=":2289479262_0_1" index="1" disallow="tram rail_urban rail rail_electric rail_fast ship" speed="27.78" length="0.28" shape="4436.13,15983.86 4436.05,15983.55"/>
    </edge>
    <edge id=":2289516001_0" function="internal">
        <lane id=":2289516001_0_0" index="0" allow="private emergency authority army vip passenger hov taxi bus coach delivery truck trailer motorcycle evehicle custom1 custom2" speed="30.83" length="19.27" shape="5372.32,16014.89 5367.45,16018.88 5364.13,16022.58 5361.69,16025.99 5359.47,16029.08"/>
    </edge>
    <edge id=":2289516001_1" function="internal">
        <lane id=":2289516001_1_0" index="0" allow="private emergency authority army vip passenger hov taxi bus coach delivery truck trailer motorcycle evehicle custom1 custom2" speed="39.44" length="19.28" shape="5372.32,16014.89 5356.52,16025.94"/>
        <lane id=":2289516001_1_1" index="1" allow="private emergency authority army vip passenger hov taxi bus coach delivery truck trailer motorcycle evehicle custom1 custom2" speed="39.44" length="19.28" shape="5370.48,16012.27 5354.69,16023.32"/>
        <lane id=":2289516001_1_2" index="2" allow="private emergency authority army vip passenger hov taxi bus coach delivery truck trailer motorcycle evehicle custom1 custom2" speed="39.44" length="19.28" shape="5368.65,16009.65 5352.85,16020.70"/>
    </edge>
    <edge id=":2289516003_0" function="internal">
        <lane id=":2289516003_0_0" index="0" disallow="tram rail_urban rail rail_electric rail_fast ship" speed="13.73" length="12.28" shape="4470.36,16066.00 4471.81,16069.14 4473.62,16070.79 4476.00,16072.04 4479.13,16073.98"/>
        <lane id=":2289516003_0_1" index="1" disallow="tram rail_urban rail rail_electric rail_fast ship" speed="14.10" length="12.97" shape="4470.36,16066.00 4471.51,16069.65 4472.60,16072.12 4474.28,16074.17 4477.22,16076.55"/>
    </edge>
    <edge id=":2289516003_2" function="internal">
        <lane id=":2289516003_2_0" index="0" disallow="tram rail_urban rail rail_electric rail_fast ship" speed="27.78" length="13.23" shape="4470.36,16066.00 4473.91,16078.81"/>
        <lane id=":2289516003_2_1" index="1" disallow="tram rail_urban rail rail_electric rail_fast ship" speed="27.78" length="13.23" shape="4467.30,16066.95 4470.81,16079.64"/>
    </edge>
    <edge id=":2289516006_0" function="internal">
        <lane id=":2289516006_0_0" index="0" disallow="tram rail_urban rail rail_electric rail_fast ship" speed="9.62" length="9.99" shape="4503.87,16166.94 4501.90,16169.90 4500.59,16172.39 4499.95,16174.39 4499.96,16175.91"/>
        <lane id=":2289516006_0_1" index="1" disallow="tram rail_urban rail rail_electric rail_fast ship" speed="10.83" length="12.79" shape="4501.28,16165.07 4498.94,16168.67 4497.43,16171.81 4496.74,16174.50 4496.87,16176.74"/>
    </edge>
    <edge id=":2289516006_2" function="internal">
        <lane id=":2289516006_2_0" index="0" disallow="tram rail_urban rail rail_electric rail_fast ship" speed="27.78" length="12.06" shape="4496.83,16164.26 4499.96,16175.91"/>
        <lane id=":2289516006_2_1" index="1" disallow="tram rail_urban rail rail_electric rail_fast ship" speed="27.78" length="12.06" shape="4493.74,16165.09 4496.87,16176.74"/>
    </edge>
    <edge id=":2289516007_0" function="internal">
        <lane id=":2289516007_0_0" index="0" disallow="tram rail_urban rail rail_electric rail_fast ship" speed="27.78" length="22.49" shape="5207.29,16176.41 5210.38,16181.86 5213.19,16185.76 5216.29,16189.47 5220.27,16194.35"/>
        <lane id=":2289516007_0_1" index="1" disallow="tram rail_urban rail rail_electric rail_fast ship" speed="27.78" length="22.49" shape="5204.44,16177.87 5207.58,16183.40 5210.50,16187.47 5213.72,16191.35 5217.74,16196.31"/>
    </edge>
    <edge id=":2289516007_2" function="internal">
        <lane id=":2289516007_2_0" index="0" allow="private emergency authority army vip passenger hov taxi bus coach delivery truck trailer motorcycle evehicle custom1 custom2" speed="25.00" length="22.61" shape="5204.44,16177.87 5207.60,16184.18 5210.23,16189.72 5212.30,16194.48 5213.80,16198.44"/>
    </edge>
    <edge id=":2289516019_0" function="internal">
        <lane id=":2289516019_0_0" index="0" allow="private emergency authority army vip passenger hov taxi bus coach delivery truck trailer motorcycle evehicle custom1 custom2" speed="22.22" length="7.84" shape="5169.77,16276.34 5168.00,16277.86 5167.00,16279.16 5165.97,16280.42 5164.10,16281.77"/>
        <lane id=":2289516019_0_1" index="1" allow="private emergency authority army vip passenger hov taxi bus coach delivery truck trailer motorcycle evehicle custom1 custom2" speed="22.22" length="7.84" shape="5169.77,16276.34 5167.77,16277.41 5166.21,16277.77 5164.63,16278.08 5162.52,16278.99"/>
    </edge>
    <edge id=":2289516021_0" function="internal">
        <lane id=":2289516021_0_0" index="0" disallow="tram rail_urban rail rail_electric rail_fast ship" speed="8.75" length="5.47" shape="5312.34,16350.06 5313.11,16351.43 5313.90,16352.21 5314.93,16352.75 5316.41,16353.43"/>
    </edge>
    <edge id=":2289516021_1" function="internal">
        <lane id=":2289516021_1_0" index="0" disallow="tram rail_urban rail rail_electric rail_fast ship" speed="17.98" length="5.30" shape="5312.34,16350.06 5312.91,16351.66 5312.99,16352.84 5312.88,16354.08 5312.88,16355.83"/>
        <lane id=":2289516021_1_1" index="1" disallow="tram rail_urban rail rail_electric rail_fast ship" speed="16.16" length="5.30" shape="5309.44,16351.42 5309.87,16352.71 5309.87,16353.66 5309.71,16354.66 5309.69,16356.07"/>
    </edge>
    <edge id=":2289516060_0" function="internal">
        <lane id=":2289516060_0_0" index="0" disallow="tram rail_urban rail rail_electric rail_fast ship" speed="18.56" length="11.25" shape="5308.99,16427.49 5306.22,16428.93 5304.19,16430.11 5302.37,16431.69 5300.24,16434.31"/>
    </edge>
    <edge id=":2289516060_1" function="internal">
        <lane id=":2289516060_1_0" index="0" disallow="tram rail_urban rail rail_electric rail_fast ship" speed="27.78" length="11.17" shape="5304.63,16423.67 5303.56,16426.95 5302.95,16429.27 5302.08,16431.45 5300.24,16434.31"/>
        <lane id=":2289516060_1_1" index="1" disallow="tram rail_urban rail rail_electric rail_fast ship" speed="27.78" length="11.17" shape="5301.64,16422.53 5300.66,16425.57 5300.12,16427.73 5299.35,16429.76 5297.66,16432.41"/>
    </edge>
    <edge id=":2289516100_0" function="internal">
        <lane id=":2289516100_0_0" index="0" allow="private emergency authority army vip passenger hov taxi bus coach delivery truck trailer motorcycle evehicle custom1 custom2" speed="22.22" length="8.14" shape="5051.26,16480.31 5053.27,16479.04 5054.43,16477.83 5055.58,16476.59 5057.54,16475.22"/>
    </edge>
    <edge id=":2289516101_0" function="internal">
        <lane id=":2289516101_0_0" index="0" allow="private emergency authority army vip passenger hov taxi bus coach delivery truck trailer motorcycle evehicle custom1 custom2" speed="22.22" length="0.61" shape="4841.18,16473.59 4841.10,16473.64 4841.05,16473.67 4841.00,16473.70 4840.93,16473.76"/>
        <lane id=":2289516101_0_1" index="1" allow="private emergency authority army vip passenger hov taxi bus coach delivery truck trailer motorcycle evehicle custom1 custom2" speed="22.22" length="0.61" shape="4839.69,16470.76 4839.46,16470.89 4839.30,16470.98 4839.15,16471.09 4838.93,16471.26"/>
    </edge>
    <edge id=":2289516122_0" function="internal">
        <lane id=":2289516122_0_0" index="0" disallow="tram rail_urban rail rail_electric rail_fast ship" speed="27.78" length="21.09" shape="5190.03,16516.21 5184.18,16517.87 5179.98,16518.99 5175.90,16520.44 5170.45,16523.06"/>
        <lane id=":2289516122_0_1" index="1" disallow="tram rail_urban rail rail_electric rail_fast ship" speed="27.78" length="21.09" shape="5189.08,16513.15 5183.15,16514.85 5178.76,16516.05 5174.50,16517.57 5168.96,16520.22"/>
    </edge>
    <edge id=":2289516122_2" function="internal">
        <lane id=":2289516122_2_0" index="0" allow="private emergency authority army vip passenger hov taxi bus coach delivery truck trailer motorcycle evehicle custom1 custom2" speed="25.00" length="21.18" shape="5186.94,16509.07 5183.72,16511.47 5179.80,16514.06 5174.95,16516.95 5168.96,16520.22"/>
    </edge>
    <edge id=":2289516126_0" function="internal">
        <lane id=":2289516126_0_0" index="0" allow="private emergency authority army vip passenger hov taxi bus coach delivery truck trailer motorcycle evehicle custom1 custom2" speed="22.22" length="0.25" shape="4887.38,16557.49 4887.55,16557.41"/>
        <lane id=":2289516126_0_1" index="1" allow="private emergency authority army vip passenger hov taxi bus coach delivery truck trailer motorcycle evehicle custom1 custom2" speed="22.22" length="0.25" shape="4888.67,16560.42 4888.96,16560.28"/>
    </edge>
    <edge id=":2289516129_0" function="internal">
        <lane id=":2289516129_0_0" index="0" disallow="tram rail_urban rail rail_electric rail_fast ship" speed="27.78" length="16.32" shape="4852.01,16624.82 4850.47,16620.34 4849.56,16617.18 4848.33,16614.20 4845.82,16610.25"/>
        <lane id=":2289516129_0_1" index="1" disallow="tram rail_urban rail rail_electric rail_fast ship" speed="27.78" length="16.32" shape="4854.99,16623.64 4853.36,16618.95 4852.38,16615.64 4851.06,16612.53 4848.42,16608.38"/>
    </edge>
    <edge id=":2289516129_2" function="internal">
        <lane id=":2289516129_2_0" index="0" disallow="tram rail_urban rail rail_electric rail_fast ship" speed="27.78" length="15.31" shape="4857.35,16620.77 4853.69,16617.88 4851.07,16615.99 4848.71,16613.85 4845.82,16610.25"/>
        <lane id=":2289516129_2_1" index="1" disallow="tram rail_urban rail rail_electric rail_fast ship" speed="27.78" length="15.31" shape="4859.43,16618.34 4855.94,16615.60 4853.44,16613.81 4851.18,16611.80 4848.42,16608.38"/>
    </edge>
    <edge id=":2289516130_0" function="internal">
        <lane id=":2289516130_0_0" index="0" disallow="tram rail_urban rail rail_electric rail_fast ship" speed="27.78" length="12.19" shape="4866.90,16629.05 4863.82,16627.04 4861.95,16625.33 4860.20,16623.45 4857.50,16620.90"/>
        <lane id=":2289516130_0_1" index="1" disallow="tram rail_urban rail rail_electric rail_fast ship" speed="27.78" length="12.19" shape="4868.50,16626.27 4865.57,16624.35 4863.80,16622.71 4862.15,16620.90 4859.58,16618.47"/>
    </edge>
    <edge id=":2289516130_2" function="internal">
        <lane id=":2289516130_2_0" index="0" allow="private emergency authority army vip passenger hov taxi bus coach delivery truck trailer motorcycle evehicle custom1 custom2" speed="15.34" length="13.06" shape="4868.50,16626.27 4865.44,16623.88 4863.91,16621.38 4862.99,16618.63 4861.74,16615.52"/>
    </edge>
    <edge id=":2289516131_0" function="internal">