<?xml version="1.0" encoding="UTF-8"?>

<!-- generated on 2023-11-03 18:46:43 by Eclipse SUMO duarouter Version 1.18.0
<configuration xmlns:xsi="http://www.w3.org/2001/XMLSchema-instance" xsi:noNamespaceSchemaLocation="http://sumo.dlr.de/xsd/duarouterConfiguration.xsd">

    <input>
        <net-file value="test4_1.net.xml"/>
        <route-files value="test4_2.trips.xml"/>
    </input>

    <output>
        <output-file value="test4_2.rou.xml"/>
    </output>

</configuration>
-->

<routes xmlns:xsi="http://www.w3.org/2001/XMLSchema-instance" xsi:noNamespaceSchemaLocation="http://sumo.dlr.de/xsd/routes_file.xsd">
    <vehicle id="0" depart="0.00">
        <route edges="29496808#0 29496808#1 29496808#1.959 29496808#2 29496808#2.341"/>
    </vehicle>
    <vehicle id="1" depart="1.00">
        <route edges="55083473#1.4.32 55083473#1.4.49 55083473#2"/>
    </vehicle>
    <vehicle id="2" depart="1.00">
        <route edges="55083473#1.4.32 E0 219627713.31.8 219628427 219628434 219628428 478190549 219628426#0 219628426#1 219628429#4 219628429#5 394700612 394700608 479199823 219627712 219822987 29496808#2 29496808#2.341"/>
    </vehicle>
    <vehicle id="3" depart="1.00">
        <route edges="55083473#1.4.32 55083473#1.4.49 55083473#2"/>
    </vehicle>
    <vehicle id="4" depart="2.00">
        <route edges="29496808#0 29496808#1 29496808#1.959 29496808#2 29496808#2.341"/>
    </vehicle>
    <vehicle id="5" depart="3.00">
        <route edges="29496808#0 29496808#1 29496808#1.959 29496808#2 29496808#2.341"/>
    </vehicle>
    <vehicle id="6" depart="5.00">
        <route edges="29496808#0 29496808#1 29496808#1.959 29496808#2 29496808#2.341"/>
    </vehicle>
    <vehicle id="7" depart="5.00">
        <route edges="29496808#0 29496808#1 29496808#1.959 29496808#2 29496808#2.341"/>
    </vehicle>
    <vehicle id="8" depart="6.00">
        <route edges="55083473#1.4.32 55083473#1.4.49 55083473#2"/>
    </vehicle>
    <vehicle id="9" depart="8.00">
        <route edges="55083473#1.4.32 55083473#1.4.49 55083473#2"/>
    </vehicle>
    <vehicle id="10" depart="9.00">
        <route edges="55083473#1.4.32 55083473#1.4.49 55083473#2"/>
    </vehicle>
    <vehicle id="11" depart="11.00">
        <route edges="29496808#0 29496808#1 29496808#1.959 29496808#2 29496808#2.341"/>
    </vehicle>
    <vehicle id="12" depart="11.00">
        <route edges="833484977 833484976 830653154#11 830653153"/>
    </vehicle>
    <vehicle id="13" depart="12.00">
        <route edges="55083473#1.4.32 E0 219627713.31.8 219628427 219628434 219628428 478190549 219628426#0 219628426#1 219628429#4 219628429#5 394700612 394700608 479199823 219627712 219822987 29496808#2 29496808#2.341"/>
    </vehicle>
    <vehicle id="14" depart="14.00">
        <route edges="833484977 833484976 830653154#11 830653153"/>
    </vehicle>
    <vehicle id="15" depart="14.00">
        <route edges="55083473#1.4.32 55083473#1.4.49 55083473#2"/>
    </vehicle>
    <vehicle id="16" depart="16.00">
        <route edges="830650862 830650861#0 219628424 219628429#3 219628429#4 219628430 219628425#1 478181243 478181242 219628432 219628433 55083473#2"/>
    </vehicle>
    <vehicle id="17" depart="16.00">
        <route edges="830653154#7 830653154#8 830653154#9 830653154#10 830653154#11 830653153"/>
    </vehicle>
    <vehicle id="18" depart="16.00">
        <route edges="219823957 219822986#2 219822984#0 219822990#0 219822990#1 219822990#2 219628429#0 364638851 478181243 478181242 219628432 219628433 55083473#2"/>
    </vehicle>
    <vehicle id="19" depart="17.00">
        <route edges="29496808#0 29496808#1 29496808#1.959 29496808#2 29496808#2.341"/>
    </vehicle>
    <vehicle id="20" depart="18.00">
        <route edges="55083473#1.4.32 55083473#1.4.49 55083473#2"/>
    </vehicle>
    <vehicle id="21" depart="18.00">
        <route edges="29496808#0 29496808#1 29496808#1.959 29496808#2 29496808#2.341"/>
    </vehicle>
    <vehicle id="22" depart="18.00">
        <route edges="219823957 219822986#2 219822984#0 219822984#1 219822984#2 830650861#4 830650861#5"/>
    </vehicle>
    <vehicle id="23" depart="19.00">
        <route edges="29496808#0 29496808#1 29496808#1.959 29496808#2 29496808#2.341"/>
    </vehicle>
    <vehicle id="24" depart="19.00">
        <route edges="830650862 830650861#0 219628424 219628429#3 219628429#4 219628430 219628425#1 478181243 478181242 219628432 219628433 55083473#2"/>
    </vehicle>
    <vehicle id="25" depart="20.00">
        <route edges="29496808#0 29496808#1 29496808#1.959 29496808#2 29496808#2.341"/>
    </vehicle>
    <vehicle id="26" depart="21.00">
        <route edges="55083473#1.4.32 E0 219627713.31.8 219628427 219628434 219628428 478190549 219628426#0 219628426#1 219628429#4 219628429#5 219822986#0 185495393"/>
    </vehicle>
    <vehicle id="27" depart="21.00">
        <route edges="29496808#0 29496808#1 29496808#1.959 29496808#2 29496808#2.341"/>
    </vehicle>
    <vehicle id="28" depart="21.00">
        <route edges="29496808#0 29496808#1 29496808#1.959 29496808#2 29496808#2.341"/>
    </vehicle>
    <vehicle id="29" depart="21.00">
        <route edges="830650862 830650861#0 830650861#1 830650861#2 830650861#3 830650861#4 830650861#5"/>
    </vehicle>
    <vehicle id="30" depart="22.00">
        <route edges="55083473#1.4.32 55083473#1.4.49 55083473#2"/>
    </vehicle>
    <vehicle id="31" depart="23.00">
        <route edges="29496808#0 29496808#1 29496808#1.959 29496808#2 29496808#2.341"/>
    </vehicle>
    <vehicle id="32" depart="25.00">
        <route edges="55083473#1.4.32 E0 219627713.31.8 219628427 219628434 219628428 478190549 219628426#0 219628426#1 219628429#4 219628429#5 219822986#0 185495393"/>
    </vehicle>
    <vehicle id="33" depart="26.00">
        <route edges="55083473#1.4.32 55083473#1.4.49 55083473#2"/>
    </vehicle>
    <vehicle id="34" depart="26.00">
        <route edges="29496808#0 29496808#1 29496808#1.959 29496808#2 29496808#2.341"/>
    </vehicle>
    <vehicle id="35" depart="26.00">
        <route edges="830650862 830650861#0 830650861#1 830650861#2 830650861#3 830650861#4 830650861#5"/>
    </vehicle>
    <vehicle id="36" depart="27.00">
        <route edges="55083473#1.4.32 55083473#1.4.49 55083473#2"/>
    </vehicle>
    <vehicle id="37" depart="28.00">
        <route edges="830650862 830650861#0 830650861#1 830650861#2 830650861#3 830650861#4 830650861#5"/>
    </vehicle>
    <vehicle id="38" depart="28.00">
        <route edges="55083473#1.4.32 55083473#1.4.49 55083473#2"/>
    </vehicle>
    <vehicle id="39" depart="29.00">
        <route edges="55083473#1.4.32 55083473#1.4.49 55083473#2"/>
    </vehicle>
    <vehicle id="40" depart="29.00">
        <route edges="55083473#1.4.32 55083473#1.4.49 55083473#2"/>
    </vehicle>
    <vehicle id="41" depart="29.00">
        <route edges="55083473#1.4.32 55083473#1.4.49 55083473#2"/>
    </vehicle>
    <vehicle id="42" depart="29.00">
        <route edges="29496808#0 29496808#1 29496808#1.959 29496808#2 29496808#2.341"/>
    </vehicle>
    <vehicle id="43" depart="29.00">
        <route edges="29496808#0 29496808#1 29496808#1.959 29496808#2 29496808#2.341"/>
    </vehicle>
    <vehicle id="44" depart="32.00">
        <route edges="830650862 830650861#0 830650861#1 830650861#2 830650861#3 830650861#4 830650861#5"/>
    </vehicle>
    <vehicle id="45" depart="32.00">
        <route edges="29496808#0 219822989 219822991 219860999 219860996 478966536 219822988 394700607 219822984#0 219822984#1 219822984#2 830650861#4 830650861#5"/>
    </vehicle>
    <vehicle id="46" depart="34.00">
        <route edges="55083473#1.4.32 55083473#1.4.49 55083473#2"/>
    </vehicle>
    <vehicle id="47" depart="34.00">
        <route edges="29496808#0 29496808#1 29496808#1.959 29496808#2 29496808#2.341"/>
    </vehicle>
    <vehicle id="48" depart="34.00">
        <route edges="55083473#1.4.32 55083473#1.4.49 55083473#2"/>
    </vehicle>
    <vehicle id="49" depart="35.00">
        <route edges="55083473#1.4.32 55083473#1.4.49 55083473#2"/>
    </vehicle>
    <vehicle id="50" depart="36.00">
        <route edges="29496808#0 219822989 219822991 219860999 219860996 478966536 219822988 394700607 219822984#0 219822984#1 219822984#2 830650861#4 830650861#5"/>
    </vehicle>
    <vehicle id="51" depart="37.00">
        <route edges="29496808#0 219822989 219822991 219860999 219860996 478966536 219822988 394700607 219822984#0 219822990#0 219822990#1 219822990#2 219628429#0 219628429#1 219628429#2 219628429#3 219628429#4 219628429#5 219822986#0 185495393"/>
    </vehicle>
    <vehicle id="52" depart="39.00">
        <route edges="29496808#0 29496808#1 29496808#1.959 29496808#2 29496808#2.341"/>
    </vehicle>
    <vehicle id="53" depart="42.00">
        <route edges="830650862 830650861#0 830650861#1 830650861#2 830650861#3 830650861#4 830650861#5"/>
    </vehicle>
    <vehicle id="54" depart="42.00">
        <route edges="29496808#0 29496808#1 29496808#1.959 29496808#2 29496808#2.341"/>
    </vehicle>
    <vehicle id="55" depart="43.00">
        <route edges="29496808#0 219822989 219822991 219860999 219860996 478966536 219822988 394700607 219822984#0 219822990#0 219822990#1 219822990#2 219628429#0 219628429#1 219628429#2 219628429#3 219628429#4 219628429#5 219822986#0 185495393"/>
    </vehicle>
    <vehicle id="56" depart="43.00">
        <route edges="55083473#1.4.32 55083473#1.4.49 55083473#2"/>
    </vehicle>
    <vehicle id="57" depart="44.00">
        <route edges="29496808#0 29496808#1 29496808#1.959 29496808#2 29496808#2.341"/>
    </vehicle>
    <vehicle id="58" depart="45.00">
        <route edges="29496808#0 29496808#1 29496808#1.959 29496808#2 29496808#2.341"/>
    </vehicle>
    <vehicle id="59" depart="45.00">
        <route edges="219823957 219822986#2 219822984#0 219822990#0 219822990#1 219822990#2 219628429#0 364638851 478181243 478181242 219628432 219628433 55083473#2"/>
    </vehicle>
    <vehicle id="60" depart="46.00">
        <route edges="29496808#0 29496808#1 29496808#1.959 29496808#2 29496808#2.341"/>
    </vehicle>
    <vehicle id="61" depart="46.00">
        <route edges="55083473#1.4.32 55083473#1.4.49 55083473#2"/>
    </vehicle>
    <vehicle id="62" depart="47.00">
        <route edges="55083473#1.4.32 E0 219627713.31.8 219628427 219628434 219628428 478190549 219628426#0 219628426#1 219628429#4 219628429#5 394700612 394700608 479199823 219627712 219822987 29496808#2 29496808#2.341"/>
    </vehicle>
    <vehicle id="63" depart="47.00">
        <route edges="830650862 830650861#0 830650861#1 830650861#2 830650861#3 830650861#4 830650861#5"/>
    </vehicle>
    <vehicle id="64" depart="48.00">
        <route edges="29496808#0 29496808#1 29496808#1.959 29496808#2 29496808#2.341"/>
    </vehicle>
    <vehicle id="65" depart="50.00">
        <route edges="830650862 830650861#0 830650861#1 830650861#2 830650861#3 830650861#4 830650861#5"/>
    </vehicle>
    <vehicle id="66" depart="51.00">
        <route edges="55083473#1.4.32 E0 219627713.31.8 219628427 219628434 219628428 478190549 219628426#0 219628426#1 219628429#4 219628429#5 394700612 394700608 479199823 219627712 219822987 29496808#2 29496808#2.341"/>
    </vehicle>
    <vehicle id="67" depart="52.00">
        <route edges="29496808#0 29496808#1 29496808#1.959 29496808#2 29496808#2.341"/>
    </vehicle>
    <vehicle id="68" depart="52.00">
        <route edges="29496808#0 29496808#1 29496808#1.959 29496808#2 29496808#2.341"/>
    </vehicle>
    <vehicle id="69" depart="52.00">
        <route edges="29496808#0 219822989 219822991 219860999 219860996 478966536 219822988 394700607 219822984#0 219822990#0 219822990#1 219822990#2 219628429#0 219628429#1 219628429#2 219628429#3 219628429#4 219628429#5 219822986#0 185495393"/>
    </vehicle>
    <vehicle id="70" depart="52.00">
        <route edges="55083473#1.4.32 55083473#1.4.49 55083473#2"/>
    </vehicle>
    <vehicle id="71" depart="53.00">
        <route edges="29496808#0 29496808#1 29496808#1.959 29496808#2 29496808#2.341"/>
    </vehicle>
    <vehicle id="72" depart="54.00">
        <route edges="219823957 219822986#2 219822984#0 219822984#1 219822984#2 830650861#4 830650861#5"/>
    </vehicle>
    <vehicle id="73" depart="55.00">
        <route edges="219823957 219822986#2 219822984#0 219822990#0 219822990#1 219822990#2 219628429#0 364638851 478181243 478181242 219628432 219628433 55083473#2"/>
    </vehicle>
    <vehicle id="74" depart="55.00">
        <route edges="830653154#7 830653154#8 830653154#9 830653154#10 830653154#11 830653153"/>
    </vehicle>
    <vehicle id="75" depart="56.00">
        <route edges="55083473#1.4.32 55083473#1.4.49 55083473#2"/>
    </vehicle>
    <vehicle id="76" depart="56.00">
        <route edges="55083473#1.4.32 55083473#1.4.49 55083473#2"/>
    </vehicle>
    <vehicle id="77" depart="57.00">
        <route edges="219823957 219822986#2 219822984#0 219822984#1 219822984#2 830650861#4 830650861#5"/>
    </vehicle>
    <vehicle id="78" depart="57.00">
        <route edges="29496808#0 29496808#1 29496808#1.959 29496808#2 29496808#2.341"/>
    </vehicle>
    <vehicle id="79" depart="58.00">
        <route edges="55083473#1.4.32 E0 219627713.31.8 219628427 219628434 219628428 478190549 219628426#0 219628426#1 219628429#4 219628429#5 394700612 394700608 479199823 219627712 219822987 29496808#2 29496808#2.341"/>
    </vehicle>
    <vehicle id="80" depart="58.00">
        <route edges="55083473#1.4.32 55083473#1.4.49 55083473#2"/>
    </vehicle>
    <vehicle id="81" depart="58.00">
        <route edges="29496808#0 29496808#1 29496808#1.959 29496808#2 29496808#2.341"/>
    </vehicle>
    <vehicle id="82" depart="60.00">
        <route edges="29496808#0 29496808#1 29496808#1.959 29496808#2 29496808#2.341"/>
    </vehicle>
    <vehicle id="83" depart="60.00">
        <route edges="55083473#1.4.32 55083473#1.4.49 55083473#2"/>
    </vehicle>
    <vehicle id="84" depart="61.00">
        <route edges="55083473#1.4.32 55083473#1.4.49 55083473#2"/>
    </vehicle>
    <vehicle id="85" depart="61.00">
        <route edges="55083473#1.4.32 55083473#1.4.49 55083473#2"/>
    </vehicle>
    <vehicle id="86" depart="62.00">
        <route edges="830650862 830650861#0 830650861#1 830650861#2 830650861#3 830650861#4 830650861#5"/>
    </vehicle>
    <vehicle id="87" depart="62.00">
        <route edges="55083473#1.4.32 55083473#1.4.49 55083473#2"/>
    </vehicle>
    <vehicle id="88" depart="64.00">
        <route edges="55083473#1.4.32 55083473#1.4.49 55083473#2"/>
    </vehicle>
    <vehicle id="89" depart="64.00">
        <route edges="29496808#0 29496808#1 29496808#1.959 29496808#2 29496808#2.341"/>
    </vehicle>
    <vehicle id="90" depart="65.00">
        <route edges="29496808#0 29496808#1 29496808#1.959 29496808#2 29496808#2.341"/>
    </vehicle>
    <vehicle id="91" depart="68.00">
        <route edges="830653154#7 830653154#8 830653154#9 833484979 833484978"/>
    </vehicle>
    <vehicle id="92" depart="68.00">
        <route edges="29496808#0 29496808#1 29496808#1.959 29496808#2 29496808#2.341"/>
    </vehicle>
    <vehicle id="93" depart="69.00">
        <route edges="29496808#0 29496808#1 29496808#1.959 29496808#2 29496808#2.341"/>
    </vehicle>
    <vehicle id="94" depart="69.00">
        <route edges="55083473#1.4.32 55083473#1.4.49 55083473#2"/>
    </vehicle>
    <vehicle id="95" depart="69.00">
        <route edges="830650862 830650861#0 830650861#1 830650861#2 830650861#3 830650861#4 830650861#5"/>
    </vehicle>
    <vehicle id="96" depart="70.00">
        <route edges="29496808#0 29496808#1 29496808#1.959 29496808#2 29496808#2.341"/>
    </vehicle>
    <vehicle id="97" depart="70.00">
        <route edges="29496808#0 29496808#1 29496808#1.959 29496808#2 29496808#2.341"/>
    </vehicle>
    <vehicle id="98" depart="70.00">
        <route edges="55083473#1.4.32 E0 219627713.31.8 219628427 219628434 219628428 478190549 219628426#0 219628426#1 219628429#4 219628429#5 219822986#0 219822986#1 219822986#2 219822984#0 219822984#1 219822984#2 830650861#4 830650861#5"/>
    </vehicle>
    <vehicle id="99" depart="70.00">
        <route edges="29496808#0 29496808#1 29496808#1.959 29496808#2 29496808#2.341"/>
    </vehicle>
    <vehicle id="100" depart="70.00">
        <route edges="29496808#0 29496808#1 29496808#1.959 29496808#2 29496808#2.341"/>
    </vehicle>
    <vehicle id="101" depart="72.00">
        <route edges="830653154#7 830653154#8 830653154#9 830653154#10 830653154#11 830653153"/>
    </vehicle>
    <vehicle id="102" depart="72.00">
        <route edges="29496808#0 219822989 219822991 219860999 219860996 478966536 219822988 394700607 219822984#0 219822984#1 219822984#2 830650861#4 830650861#5"/>
    </vehicle>
    <vehicle id="103" depart="73.00">
        <route edges="830650862 830650861#0 830650861#1 830650861#2 830650861#3 830650861#4 830650861#5"/>
    </vehicle>
    <vehicle id="104" depart="73.00">
        <route edges="55083473#1.4.32 55083473#1.4.49 55083473#2"/>
    </vehicle>
    <vehicle id="105" depart="73.00">
        <route edges="55083473#1.4.32 55083473#1.4.49 55083473#2"/>
    </vehicle>
    <vehicle id="106" depart="74.00">
        <route edges="55083473#1.4.32 55083473#1.4.49 55083473#2"/>
    </vehicle>
    <vehicle id="107" depart="74.00">
        <route edges="55083473#1.4.32 55083473#1.4.49 55083473#2"/>
    </vehicle>
    <vehicle id="108" depart="75.00">
        <route edges="55083473#1.4.32 55083473#1.4.49 55083473#2"/>
    </vehicle>
    <vehicle id="109" depart="76.00">
        <route edges="55083473#1.4.32 55083473#1.4.49 55083473#2"/>
    </vehicle>
    <vehicle id="110" depart="76.00">
        <route edges="29496808#0 29496808#1 29496808#1.959 29496808#2 29496808#2.341"/>
    </vehicle>
    <vehicle id="111" depart="76.00">
        <route edges="29496808#0 29496808#1 29496808#1.959 29496808#2 29496808#2.341"/>
    </vehicle>
    <vehicle id="112" depart="77.00">
        <route edges="55083473#1.4.32 55083473#1.4.49 55083473#2"/>
    </vehicle>
    <vehicle id="113" depart="77.00">
        <route edges="55083473#1.4.32 55083473#1.4.49 55083473#2"/>
    </vehicle>
    <vehicle id="114" depart="77.00">
        <route edges="830650862 830650861#0 830650861#1 830650861#2 830650861#3 830650861#4 830650861#5"/>
    </vehicle>
    <vehicle id="115" depart="77.00">
        <route edges="830650862 830650861#0 219628424 219628429#3 219628429#4 219628429#5 219822986#0 185495393"/>
    </vehicle>
    <vehicle id="116" depart="77.00">
        <route edges="830650862 830650861#0 219628424 219628429#3 219628429#4 219628429#5 394700612 394700608 479199823 219627712 219822987 29496808#2 29496808#2.341"/>
    </vehicle>
    <vehicle id="117" depart="77.00">
        <route edges="55083473#1.4.32 55083473#1.4.49 55083473#2"/>
    </vehicle>
    <vehicle id="118" depart="77.00">
        <route edges="830653154#7 830653154#8 830653154#9 830653154#10 830653154#11 830653153"/>
    </vehicle>
    <vehicle id="119" depart="77.00">
        <route edges="29496808#0 29496808#1 29496808#1.959 29496808#2 29496808#2.341"/>
    </vehicle>
    <vehicle id="120" depart="78.00">
        <route edges="55083473#1.4.32 E0 219627713.31.8 219628427 219628434 219628428 478190549 219628426#0 219628426#1 219628429#4 219628429#5 219822986#0 219822986#1 219822986#2 219822984#0 219822984#1 219822984#2 830650861#4 830650861#5"/>
    </vehicle>
    <vehicle id="121" depart="78.00">
        <route edges="29496808#0 29496808#1 29496808#1.959 29496808#2 29496808#2.341"/>
    </vehicle>
    <vehicle id="122" depart="78.00">
        <route edges="29496808#0 29496808#1 29496808#1.959 29496808#2 29496808#2.341"/>
    </vehicle>
    <vehicle id="123" depart="78.00">
        <route edges="55083473#1.4.32 55083473#1.4.49 55083473#2"/>
    </vehicle>
    <vehicle id="124" depart="79.00">
        <route edges="55083473#1.4.32 55083473#1.4.49 55083473#2"/>
    </vehicle>
    <vehicle id="125" depart="79.00">
        <route edges="219823957 219822986#2 219822984#0 219822990#0 219822990#1 219822990#2 219628429#0 364638851 478181243 478181242 219628432 219628433 55083473#2"/>
    </vehicle>
    <vehicle id="126" depart="80.00">
        <route edges="219823957 219822986#2 219822984#0 219822984#1 219822984#2 830650861#4 830650861#5"/>
    </vehicle>
    <vehicle id="127" depart="80.00">
        <route edges="29496808#0 29496808#1 29496808#1.959 29496808#2 29496808#2.341"/>
    </vehicle>
    <vehicle id="128" depart="80.00">
        <route edges="55083473#1.4.32 55083473#1.4.49 55083473#2"/>
    </vehicle>
    <vehicle id="129" depart="80.00">
        <route edges="55083473#1.4.32 55083473#1.4.49 55083473#2"/>
    </vehicle>
    <vehicle id="130" depart="82.00">
        <route edges="55083473#1.4.32 55083473#1.4.49 55083473#2"/>
    </vehicle>
    <vehicle id="131" depart="82.00">
        <route edges="29496808#0 29496808#1 29496808#1.959 29496808#2 29496808#2.341"/>
    </vehicle>
    <vehicle id="132" depart="82.00">
        <route edges="55083473#1.4.32 E0 219627713.31.8 219628427 219628434 219628428 478190549 219628426#0 219628426#1 219628429#4 219628429#5 394700612 394700608 479199823 219627712 219822987 29496808#2 29496808#2.341"/>
    </vehicle>
    <vehicle id="133" depart="82.00">
        <route edges="29496808#0 29496808#1 29496808#1.959 29496808#2 29496808#2.341"/>
    </vehicle>
    <vehicle id="134" depart="82.00">
        <route edges="833484977 833484976 830653154#11 830653153"/>
    </vehicle>
    <vehicle id="135" depart="84.00">
        <route edges="55083473#1.4.32 55083473#1.4.49 55083473#2"/>
    </vehicle>
    <vehicle id="136" depart="84.00">
        <route edges="55083473#1.4.32 55083473#1.4.49 55083473#2"/>
    </vehicle>
    <vehicle id="137" depart="85.00">
        <route edges="29496808#0 29496808#1 29496808#1.959 29496808#2 29496808#2.341"/>
    </vehicle>
    <vehicle id="138" depart="85.00">
        <route edges="830653154#7 830653154#8 830653154#9 830653154#10 830653154#11 830653153"/>
    </vehicle>
    <vehicle id="139" depart="86.00">
        <route edges="55083473#1.4.32 55083473#1.4.49 55083473#2"/>
    </vehicle>
    <vehicle id="140" depart="87.00">
        <route edges="29496808#0 29496808#1 29496808#1.959 29496808#2 29496808#2.341"/>
    </vehicle>
    <vehicle id="141" depart="88.00">
        <route edges="29496808#0 29496808#1 29496808#1.959 29496808#2 29496808#2.341"/>
    </vehicle>
    <vehicle id="142" depart="88.00">
        <route edges="29496808#0 29496808#1 29496808#1.959 29496808#2 29496808#2.341"/>
    </vehicle>
    <vehicle id="143" depart="89.00">
        <route edges="833484977 833484976 830653154#11 830653153"/>
    </vehicle>
    <vehicle id="144" depart="89.00">
        <route edges="55083473#1.4.32 55083473#1.4.49 55083473#2"/>
    </vehicle>
    <vehicle id="145" depart="90.00">
        <route edges="219823957 219822986#2 219822984#0 219822990#0 219860997#0 219860997#1 394700608 479199823 219627712 219822987 29496808#2 29496808#2.341"/>
    </vehicle>
    <vehicle id="146" depart="90.00">
        <route edges="55083473#1.4.32 55083473#1.4.49 55083473#2"/>
    </vehicle>
    <vehicle id="147" depart="92.00">
        <route edges="55083473#1.4.32 55083473#1.4.49 55083473#2"/>
    </vehicle>
    <vehicle id="148" depart="92.00">
        <route edges="830650862 830650861#0 219628424 219628429#3 219628429#4 219628429#5 219822986#0 185495393"/>
    </vehicle>
    <vehicle id="149" depart="93.00">
        <route edges="830650862 830650861#0 830650861#1 830650861#2 830650861#3 830650861#4 830650861#5"/>
    </vehicle>
    <vehicle id="150" depart="93.00">
        <route edges="29496808#0 29496808#1 29496808#1.959 29496808#2 29496808#2.341"/>
    </vehicle>
    <vehicle id="151" depart="94.00">
        <route edges="55083473#1.4.32 55083473#1.4.49 55083473#2"/>
    </vehicle>
    <vehicle id="152" depart="95.00">
        <route edges="29496808#0 29496808#1 29496808#1.959 29496808#2 29496808#2.341"/>
    </vehicle>
    <vehicle id="153" depart="96.00">
        <route edges="55083473#1.4.32 55083473#1.4.49 55083473#2"/>
    </vehicle>
    <vehicle id="154" depart="97.00">
        <route edges="830650862 830650861#0 830650861#1 830650861#2 830650861#3 830650861#4 830650861#5"/>
    </vehicle>
    <vehicle id="155" depart="97.00">
        <route edges="29496808#0 29496808#1 29496808#1.959 29496808#2 29496808#2.341"/>
    </vehicle>
    <vehicle id="156" depart="97.00">
        <route edges="830650862 830650861#0 219628424 219628429#3 219628429#4 219628430 219628425#1 478181243 478181242 219628432 219628433 55083473#2"/>
    </vehicle>
    <vehicle id="157" depart="99.00">
        <route edges="830650862 830650861#0 219628424 219628429#3 219628429#4 219628429#5 394700612 394700608 479199823 219627712 219822987 29496808#2 29496808#2.341"/>
    </vehicle>
    <vehicle id="158" depart="101.00">
        <route edges="55083473#1.4.32 E0 219627713.31.8 219628427 219628434 219628428 478190549 219628426#0 219628426#1 219628429#4 219628429#5 219822986#0 185495393"/>
    </vehicle>
    <vehicle id="159" depart="101.00">
        <route edges="55083473#1.4.32 55083473#1.4.49 55083473#2"/>
    </vehicle>
    <vehicle id="160" depart="101.00">
        <route edges="55083473#1.4.32 55083473#1.4.49 55083473#2"/>
    </vehicle>
    <vehicle id="161" depart="103.00">
        <route edges="29496808#0 219822989 219822991 219860999 219860996 478966536 219822988 394700607 219822984#0 219822990#0 219822990#1 219822990#2 219628429#0 219628429#1 219628429#2 219628429#3 219628429#4 219628429#5 219822986#0 185495393"/>
    </vehicle>
    <vehicle id="162" depart="105.00">
        <route edges="55083473#1.4.32 55083473#1.4.49 55083473#2"/>
    </vehicle>
    <vehicle id="163" depart="105.00">
        <route edges="830650862 830650861#0 219628424 219628429#3 219628429#4 219628429#5 394700612 394700608 479199823 219627712 219822987 29496808#2 29496808#2.341"/>
    </vehicle>
    <vehicle id="164" depart="107.00">
        <route edges="830650862 830650861#0 830650861#1 830650861#2 830650861#3 830650861#4 830650861#5"/>
    </vehicle>
    <vehicle id="165" depart="107.00">
        <route edges="830650862 830650861#0 830650861#1 830650861#2 830650861#3 830650861#4 830650861#5"/>
    </vehicle>
    <vehicle id="166" depart="107.00">
        <route edges="55083473#1.4.32 55083473#1.4.49 55083473#2"/>
    </vehicle>
    <vehicle id="167" depart="107.00">
        <route edges="29496808#0 29496808#1 29496808#1.959 29496808#2 29496808#2.341"/>
    </vehicle>
    <vehicle id="168" depart="108.00">
        <route edges="29496808#0 219822989 219822991 219860999 219860996 478966536 219822988 394700607 219822984#0 219822984#1 219822984#2 830650861#4 830650861#5"/>
    </vehicle>
    <vehicle id="169" depart="108.00">
        <route edges="830650862 830650861#0 219628424 219628429#3 219628429#4 219628429#5 219822986#0 185495393"/>
    </vehicle>
    <vehicle id="170" depart="109.00">
        <route edges="830653154#7 830653154#8 830653154#9 833484979 833484978"/>
    </vehicle>
    <vehicle id="171" depart="110.00">
        <route edges="29496808#0 29496808#1 29496808#1.959 29496808#2 29496808#2.341"/>
    </vehicle>
    <vehicle id="172" depart="110.00">
        <route edges="29496808#0 29496808#1 29496808#1.959 29496808#2 29496808#2.341"/>
    </vehicle>
    <vehicle id="173" depart="110.00">
        <route edges="29496808#0 29496808#1 29496808#1.959 29496808#2 29496808#2.341"/>
    </vehicle>
    <vehicle id="174" depart="111.00">
        <route edges="55083473#1.4.32 E0 219627713.31.8 219628427 219628434 219628428 478190549 219628426#0 219628426#1 219628429#4 219628429#5 219822986#0 185495393"/>
    </vehicle>
    <vehicle id="175" depart="111.00">
        <route edges="219823957 219822986#2 219822984#0 219822984#1 219822984#2 830650861#4 830650861#5"/>
    </vehicle>
    <vehicle id="176" depart="112.00">
        <route edges="55083473#1.4.32 E0 219627713.31.8 219628427 219628434 219628428 478190549 219628426#0 219628426#1 219628429#4 219628429#5 219822986#0 219822986#1 219822986#2 219822984#0 219822984#1 219822984#2 830650861#4 830650861#5"/>
    </vehicle>
    <vehicle id="177" depart="112.00">
        <route edges="830650862 830650861#0 219628424 219628429#3 219628429#4 219628430 219628425#1 478181243 478181242 219628432 219628433 55083473#2"/>
    </vehicle>
    <vehicle id="178" depart="112.00">
        <route edges="29496808#0 29496808#1 29496808#1.959 29496808#2 29496808#2.341"/>
    </vehicle>
    <vehicle id="179" depart="112.00">
        <route edges="29496808#0 29496808#1 29496808#1.959 29496808#2 29496808#2.341"/>
    </vehicle>
    <vehicle id="180" depart="113.00">
        <route edges="29496808#0 29496808#1 29496808#1.959 29496808#2 29496808#2.341"/>
    </vehicle>
    <vehicle id="181" depart="113.00">
        <route edges="29496808#0 29496808#1 29496808#1.959 29496808#2 29496808#2.341"/>
    </vehicle>
    <vehicle id="182" depart="114.00">
        <route edges="55083473#1.4.32 55083473#1.4.49 55083473#2"/>
    </vehicle>
    <vehicle id="183" depart="114.00">
        <route edges="219823957 219822986#2 219822984#0 219822984#1 219822984#2 830650861#4 830650861#5"/>
    </vehicle>
    <vehicle id="184" depart="114.00">
        <route edges="29496808#0 29496808#1 29496808#1.959 29496808#2 29496808#2.341"/>
    </vehicle>
    <vehicle id="185" depart="114.00">
        <route edges="29496808#0 29496808#1 29496808#1.959 29496808#2 29496808#2.341"/>
    </vehicle>
    <vehicle id="186" depart="115.00">
        <route edges="29496808#0 29496808#1 29496808#1.959 29496808#2 29496808#2.341"/>
    </vehicle>
    <vehicle id="187" depart="115.00">
        <route edges="55083473#1.4.32 55083473#1.4.49 55083473#2"/>
    </vehicle>
    <vehicle id="188" depart="117.00">
        <route edges="29496808#0 29496808#1 29496808#1.959 29496808#2 29496808#2.341"/>
    </vehicle>
    <vehicle id="189" depart="117.00">