<routes xmlns:xsi="http://www.w3.org/2001/XMLSchema-instance" xsi:noNamespaceSchemaLocation="http://sumo.dlr.de/xsd/routes_file.xsd">
    <vehicle id="0" depart="0.00" departLane="random" departSpeed="12">
        <route edges="219823957 219822986#2 219822984#0 219822990#0 219860997#0 219860997#1 394700608 479199823 219627712 ramp1 ramp1In ramp1Merge ramp1MergeTo" />
    </vehicle>
    <vehicle id="1" depart="0.00" departLane="random" departSpeed="10">
        <route edges="29496808#0 29496808#1 ramp1MergeFrom ramp1Merge ramp1MergeTo" />
    </vehicle>
    <vehicle id="2" depart="0.00" departLane="random" departSpeed="15">
        <route edges="29496808#0 29496808#1 ramp1MergeFrom ramp1Merge ramp1MergeTo" />
    </vehicle>
    <vehicle id="3" depart="1.00" departLane="random" departSpeed="13">
        <route edges="29496808#0 29496808#1 ramp1MergeFrom ramp1Merge ramp1MergeTo" />
    </vehicle>
    <vehicle id="4" depart="1.00" departLane="random" departSpeed="15">
        <route edges="29496808#0 29496808#1 ramp1MergeFrom ramp1Merge ramp1MergeTo" />
    </vehicle>
    <vehicle id="5" depart="1.00" departLane="random" departSpeed="13">
        <route edges="29496808#0 29496808#1 ramp1MergeFrom ramp1Merge ramp1MergeTo" />
    </vehicle>
    <vehicle id="6" depart="1.00" departLane="random" departSpeed="11">
        <route edges="29496808#0 29496808#1 ramp1MergeFrom ramp1Merge ramp1MergeTo" />
    </vehicle>
    <vehicle id="7" depart="1.00" departLane="random" departSpeed="10">
        <route edges="29496808#0 29496808#1 ramp1MergeFrom ramp1Merge ramp1MergeTo" />
    </vehicle>
    <vehicle id="8" depart="2.00" departLane="random" departSpeed="13">
        <route edges="29496808#0 29496808#1 ramp1MergeFrom ramp1Merge ramp1MergeTo" />
    </vehicle>
    <vehicle id="9" depart="2.00" departLane="random" departSpeed="16">
        <route edges="29496808#0 29496808#1 ramp1MergeFrom ramp1Merge ramp1MergeTo" />
    </vehicle>
    <vehicle id="10" depart="3.00" departLane="random" departSpeed="11">
        <route edges="219823957 219822986#2 219822984#0 219822990#0 219860997#0 219860997#1 394700608 479199823 219627712 ramp1 ramp1In ramp1Merge ramp1MergeTo" />
    </vehicle>
    <vehicle id="11" depart="3.00" departLane="random" departSpeed="13">
        <route edges="29496808#0 29496808#1 ramp1MergeFrom ramp1Merge ramp1MergeTo" />
    </vehicle>
    <vehicle id="12" depart="3.00" departLane="random" departSpeed="12">
        <route edges="29496808#0 29496808#1 ramp1MergeFrom ramp1Merge ramp1MergeTo" />
    </vehicle>
    <vehicle id="13" depart="3.00" departLane="random" departSpeed="16">
        <route edges="29496808#0 29496808#1 ramp1MergeFrom ramp1Merge ramp1MergeTo" />
    </vehicle>
    <vehicle id="14" depart="4.00" departLane="random" departSpeed="15">
        <route edges="29496808#0 29496808#1 ramp1MergeFrom ramp1Merge ramp1MergeTo" />
    </vehicle>
    <vehicle id="15" depart="4.00" departLane="random" departSpeed="10">
        <route edges="29496808#0 29496808#1 ramp1MergeFrom ramp1Merge ramp1MergeTo" />
    </vehicle>
    <vehicle id="16" depart="4.00" departLane="random" departSpeed="11">
        <route edges="29496808#0 29496808#1 ramp1MergeFrom ramp1Merge ramp1MergeTo" />
    </vehicle>
    <vehicle id="17" depart="5.00" departLane="random" departSpeed="15">
        <route edges="29496808#0 29496808#1 ramp1MergeFrom ramp1Merge ramp1MergeTo" />
    </vehicle>
    <vehicle id="18" depart="5.00" departLane="random" departSpeed="12">
        <route edges="29496808#0 29496808#1 ramp1MergeFrom ramp1Merge ramp1MergeTo" />
    </vehicle>
    <vehicle id="19" depart="5.00" departLane="random" departSpeed="10">
        <route edges="830650862 830650861#0 219628424 219628429#3 219628429#4 219628429#5 394700612 394700608 479199823 219627712 ramp1 ramp1In ramp1Merge ramp1MergeTo" />
    </vehicle>
    <vehicle id="20" depart="6.00" departLane="random" departSpeed="13">
        <route edges="29496808#0 29496808#1 ramp1MergeFrom ramp1Merge ramp1MergeTo" />
    </vehicle>
    <vehicle id="21" depart="6.00" departLane="random" departSpeed="11">
        <route edges="29496808#0 29496808#1 ramp1MergeFrom ramp1Merge ramp1MergeTo" />
    </vehicle>
    <vehicle id="22" depart="6.00" departLane="random" departSpeed="10">
        <route edges="29496808#0 29496808#1 ramp1MergeFrom ramp1Merge ramp1MergeTo" />
    </vehicle>
    <vehicle id="23" depart="7.00" departLane="random" departSpeed="14">
        <route edges="29496808#0 29496808#1 ramp1MergeFrom ramp1Merge ramp1MergeTo" />
    </vehicle>
    <vehicle id="24" depart="7.00" departLane="random" departSpeed="15">
        <route edges="29496808#0 29496808#1 ramp1MergeFrom ramp1Merge ramp1MergeTo" />
    </vehicle>
    <vehicle id="25" depart="8.00" departLane="random" departSpeed="16">
        <route edges="29496808#0 29496808#1 ramp1MergeFrom ramp1Merge ramp1MergeTo" />
    </vehicle>
    <vehicle id="26" depart="8.00" departLane="random" departSpeed="14">
        <route edges="29496808#0 29496808#1 ramp1MergeFrom ramp1Merge ramp1MergeTo" />
    </vehicle>
    <vehicle id="27" depart="8.00" departLane="random" departSpeed="15">
        <route edges="29496808#0 29496808#1 ramp1MergeFrom ramp1Merge ramp1MergeTo" />
    </vehicle>
    <vehicle id="28" depart="8.00" departLane="random" departSpeed="16">
        <route edges="29496808#0 29496808#1 ramp1MergeFrom ramp1Merge ramp1MergeTo" />
    </vehicle>
    <vehicle id="29" depart="9.00" departLane="random" departSpeed="16">
        <route edges="830650862 830650861#0 219628424 219628429#3 219628429#4 219628429#5 394700612 394700608 479199823 219627712 ramp1 ramp1In ramp1Merge ramp1MergeTo" />
    </vehicle>
    <vehicle id="30" depart="9.00" departLane="random" departSpeed="11">
        <route edges="29496808#0 29496808#1 ramp1MergeFrom ramp1Merge ramp1MergeTo" />
    </vehicle>
    <vehicle id="31" depart="9.00" departLane="random" departSpeed="11">
        <route edges="29496808#0 29496808#1 ramp1MergeFrom ramp1Merge ramp1MergeTo" />
    </vehicle>
    <vehicle id="32" depart="10.00" departLane="random" departSpeed="10">
        <route edges="29496808#0 29496808#1 ramp1MergeFrom ramp1Merge ramp1MergeTo" />
    </vehicle>
    <vehicle id="33" depart="10.00" departLane="random" departSpeed="15">
        <route edges="29496808#0 29496808#1 ramp1MergeFrom ramp1Merge ramp1MergeTo" />
    </vehicle>
    <vehicle id="34" depart="10.00" departLane="random" departSpeed="12">
        <route edges="29496808#0 29496808#1 ramp1MergeFrom ramp1Merge ramp1MergeTo" />
    </vehicle>
    <vehicle id="35" depart="11.00" departLane="random" departSpeed="12">
        <route edges="219823957 219822986#2 219822984#0 219822990#0 219860997#0 219860997#1 394700608 479199823 219627712 ramp1 ramp1In ramp1Merge ramp1MergeTo" />
    </vehicle>
    <vehicle id="36" depart="11.00" departLane="random" departSpeed="16">
        <route edges="29496808#0 29496808#1 ramp1MergeFrom ramp1Merge ramp1MergeTo" />
    </vehicle>
    <vehicle id="37" depart="11.00" departLane="random" departSpeed="13">
        <route edges="29496808#0 29496808#1 ramp1MergeFrom ramp1Merge ramp1MergeTo" />
    </vehicle>
    <vehicle id="38" depart="11.00" departLane="random" departSpeed="13">
        <route edges="29496808#0 29496808#1 ramp1MergeFrom ramp1Merge ramp1MergeTo" />
    </vehicle>
    <vehicle id="39" depart="12.00" departLane="random" departSpeed="10">
        <route edges="29496808#0 29496808#1 ramp1MergeFrom ramp1Merge ramp1MergeTo" />
    </vehicle>
    <vehicle id="40" depart="12.00" departLane="random" departSpeed="15">
        <route edges="29496808#0 29496808#1 ramp1MergeFrom ramp1Merge ramp1MergeTo" />
    </vehicle>
    <vehicle id="41" depart="12.00" departLane="random" departSpeed="10">
        <route edges="29496808#0 29496808#1 ramp1MergeFrom ramp1Merge ramp1MergeTo" />
    </vehicle>
    <vehicle id="42" depart="13.00" departLane="random" departSpeed="12">
        <route edges="219823957 219822986#2 219822984#0 219822990#0 219860997#0 219860997#1 394700608 479199823 219627712 ramp1 ramp1In ramp1Merge ramp1MergeTo" />
    </vehicle>
    <vehicle id="43" depart="13.00" departLane="random" departSpeed="16">
        <route edges="219823957 219822986#2 219822984#0 219822990#0 219860997#0 219860997#1 394700608 479199823 219627712 ramp1 ramp1In ramp1Merge ramp1MergeTo" />
    </vehicle>
    <vehicle id="44" depart="13.00" departLane="random" departSpeed="13">
        <route edges="29496808#0 29496808#1 ramp1MergeFrom ramp1Merge ramp1MergeTo" />
    </vehicle>
    <vehicle id="45" depart="13.00" departLane="random" departSpeed="13">
        <route edges="830650862 830650861#0 219628424 219628429#3 219628429#4 219628429#5 394700612 394700608 479199823 219627712 ramp1 ramp1In ramp1Merge ramp1MergeTo" />
    </vehicle>
    <vehicle id="46" depart="13.00" departLane="random" departSpeed="13">
        <route edges="219823957 219822986#2 219822984#0 219822990#0 219860997#0 219860997#1 394700608 479199823 219627712 ramp1 ramp1In ramp1Merge ramp1MergeTo" />
    </vehicle>
    <vehicle id="47" depart="13.00" departLane="random" departSpeed="13">
        <route edges="29496808#0 29496808#1 ramp1MergeFrom ramp1Merge ramp1MergeTo" />
    </vehicle>
    <vehicle id="48" depart="14.00" departLane="random" departSpeed="13">
        <route edges="29496808#0 29496808#1 ramp1MergeFrom ramp1Merge ramp1MergeTo" />
    </vehicle>
    <vehicle id="49" depart="14.00" departLane="random" departSpeed="15">
        <route edges="830650862 830650861#0 219628424 219628429#3 219628429#4 219628429#5 394700612 394700608 479199823 219627712 ramp1 ramp1In ramp1Merge ramp1MergeTo" />
    </vehicle>
    <vehicle id="50" depart="14.00" departLane="random" departSpeed="12">
        <route edges="29496808#0 29496808#1 ramp1MergeFrom ramp1Merge ramp1MergeTo" />
    </vehicle>
    <vehicle id="51" depart="15.00" departLane="random" departSpeed="10">
        <route edges="29496808#0 29496808#1 ramp1MergeFrom ramp1Merge ramp1MergeTo" />
    </vehicle>
    <vehicle id="52" depart="15.00" departLane="random" departSpeed="13">
        <route edges="29496808#0 29496808#1 ramp1MergeFrom ramp1Merge ramp1MergeTo" />
    </vehicle>
    <vehicle id="53" depart="15.00" departLane="random" departSpeed="11">
        <route edges="830650862 830650861#0 219628424 219628429#3 219628429#4 219628429#5 394700612 394700608 479199823 219627712 ramp1 ramp1In ramp1Merge ramp1MergeTo" />
    </vehicle>
    <vehicle id="54" depart="15.00" departLane="random" departSpeed="10">
        <route edges="29496808#0 29496808#1 ramp1MergeFrom ramp1Merge ramp1MergeTo" />
    </vehicle>
    <vehicle id="55" depart="16.00" departLane="random" departSpeed="11">
        <route edges="29496808#0 29496808#1 ramp1MergeFrom ramp1Merge ramp1MergeTo" />
    </vehicle>
    <vehicle id="56" depart="16.00" departLane="random" departSpeed="14">
        <route edges="29496808#0 29496808#1 ramp1MergeFrom ramp1Merge ramp1MergeTo" />
    </vehicle>
    <vehicle id="57" depart="16.00" departLane="random" departSpeed="15">
        <route edges="830650862 830650861#0 219628424 219628429#3 219628429#4 219628429#5 394700612 394700608 479199823 219627712 ramp1 ramp1In ramp1Merge ramp1MergeTo" />
    </vehicle>
    <vehicle id="58" depart="16.00" departLane="random" departSpeed="10">
        <route edges="219823957 219822986#2 219822984#0 219822990#0 219860997#0 219860997#1 394700608 479199823 219627712 ramp1 ramp1In ramp1Merge ramp1MergeTo" />
    </vehicle>
    <vehicle id="59" depart="17.00" departLane="random" departSpeed="16">
        <route edges="29496808#0 29496808#1 ramp1MergeFrom ramp1Merge ramp1MergeTo" />
    </vehicle>
    <vehicle id="60" depart="17.00" departLane="random" departSpeed="16">
        <route edges="29496808#0 29496808#1 ramp1MergeFrom ramp1Merge ramp1MergeTo" />
    </vehicle>
    <vehicle id="61" depart="17.00" departLane="random" departSpeed="11">
        <route edges="29496808#0 29496808#1 ramp1MergeFrom ramp1Merge ramp1MergeTo" />
    </vehicle>
    <vehicle id="62" depart="17.00" departLane="random" departSpeed="10">
        <route edges="29496808#0 29496808#1 ramp1MergeFrom ramp1Merge ramp1MergeTo" />
    </vehicle>
    <vehicle id="63" depart="18.00" departLane="random" departSpeed="10">
        <route edges="29496808#0 29496808#1 ramp1MergeFrom ramp1Merge ramp1MergeTo" />
    </vehicle>
    <vehicle id="64" depart="18.00" departLane="random" departSpeed="10">
        <route edges="29496808#0 29496808#1 ramp1MergeFrom ramp1Merge ramp1MergeTo" />
    </vehicle>
    <vehicle id="65" depart="18.00" departLane="random" departSpeed="14">
        <route edges="29496808#0 29496808#1 ramp1MergeFrom ramp1Merge ramp1MergeTo" />
    </vehicle>
    <vehicle id="66" depart="18.00" departLane="random" departSpeed="14">
        <route edges="29496808#0 29496808#1 ramp1MergeFrom ramp1Merge ramp1MergeTo" />
    </vehicle>
    <vehicle id="67" depart="19.00" departLane="random" departSpeed="12">
        <route edges="29496808#0 29496808#1 ramp1MergeFrom ramp1Merge ramp1MergeTo" />
    </vehicle>
    <vehicle id="68" depart="19.00" departLane="random" departSpeed="16">
        <route edges="29496808#0 29496808#1 ramp1MergeFrom ramp1Merge ramp1MergeTo" />
    </vehicle>
    <vehicle id="69" depart="19.00" departLane="random" departSpeed="11">
        <route edges="830650862 830650861#0 219628424 219628429#3 219628429#4 219628429#5 394700612 394700608 479199823 219627712 ramp1 ramp1In ramp1Merge ramp1MergeTo" />
    </vehicle>
    <vehicle id="70" depart="20.00" departLane="random" departSpeed="11">
        <route edges="29496808#0 29496808#1 ramp1MergeFrom ramp1Merge ramp1MergeTo" />
    </vehicle>
    <vehicle id="71" depart="20.00" departLane="random" departSpeed="10">
        <route edges="29496808#0 29496808#1 ramp1MergeFrom ramp1Merge ramp1MergeTo" />
    </vehicle>
    <vehicle id="72" depart="20.00" departLane="random" departSpeed="11">
        <route edges="29496808#0 29496808#1 ramp1MergeFrom ramp1Merge ramp1MergeTo" />
    </vehicle>
    <vehicle id="73" depart="21.00" departLane="random" departSpeed="14">
        <route edges="830650862 830650861#0 219628424 219628429#3 219628429#4 219628429#5 394700612 394700608 479199823 219627712 ramp1 ramp1In ramp1Merge ramp1MergeTo" />
    </vehicle>
    <vehicle id="74" depart="21.00" departLane="random" departSpeed="13">
        <route edges="29496808#0 29496808#1 ramp1MergeFrom ramp1Merge ramp1MergeTo" />
    </vehicle>
    <vehicle id="75" depart="22.00" departLane="random" departSpeed="14">
        <route edges="29496808#0 29496808#1 ramp1MergeFrom ramp1Merge ramp1MergeTo" />
    </vehicle>
    <vehicle id="76" depart="22.00" departLane="random" departSpeed="11">
        <route edges="29496808#0 29496808#1 ramp1MergeFrom ramp1Merge ramp1MergeTo" />
    </vehicle>
    <vehicle id="77" depart="23.00" departLane="random" departSpeed="11">
        <route edges="29496808#0 29496808#1 ramp1MergeFrom ramp1Merge ramp1MergeTo" />
    </vehicle>
    <vehicle id="78" depart="23.00" departLane="random" departSpeed="16">
        <route edges="29496808#0 29496808#1 ramp1MergeFrom ramp1Merge ramp1MergeTo" />
    </vehicle>
    <vehicle id="79" depart="23.00" departLane="random" departSpeed="11">
        <route edges="219823957 219822986#2 219822984#0 219822990#0 219860997#0 219860997#1 394700608 479199823 219627712 ramp1 ramp1In ramp1Merge ramp1MergeTo" />
    </vehicle>
    <vehicle id="80" depart="23.00" departLane="random" departSpeed="14">
        <route edges="29496808#0 29496808#1 ramp1MergeFrom ramp1Merge ramp1MergeTo" />
    </vehicle>
    <vehicle id="81" depart="23.00" departLane="random" departSpeed="16">
        <route edges="29496808#0 29496808#1 ramp1MergeFrom ramp1Merge ramp1MergeTo" />
    </vehicle>
    <vehicle id="82" depart="23.00" departLane="random" departSpeed="16">
        <route edges="29496808#0 29496808#1 ramp1MergeFrom ramp1Merge ramp1MergeTo" />
    </vehicle>
    <vehicle id="83" depart="23.00" departLane="random" departSpeed="16">
        <route edges="29496808#0 29496808#1 ramp1MergeFrom ramp1Merge ramp1MergeTo" />
    </vehicle>
    <vehicle id="84" depart="24.00" departLane="random" departSpeed="12">
        <route edges="29496808#0 29496808#1 ramp1MergeFrom ramp1Merge ramp1MergeTo" />
    </vehicle>
    <vehicle id="85" depart="24.00" departLane="random" departSpeed="16">
        <route edges="29496808#0 29496808#1 ramp1MergeFrom ramp1Merge ramp1MergeTo" />
    </vehicle>
    <vehicle id="86" depart="24.00" departLane="random" departSpeed="10">
        <route edges="830650862 830650861#0 219628424 219628429#3 219628429#4 219628429#5 394700612 394700608 479199823 219627712 ramp1 ramp1In ramp1Merge ramp1MergeTo" />
    </vehicle>
    <vehicle id="87" depart="24.00" departLane="random" departSpeed="11">
        <route edges="219823957 219822986#2 219822984#0 219822990#0 219860997#0 219860997#1 394700608 479199823 219627712 ramp1 ramp1In ramp1Merge ramp1MergeTo" />
    </vehicle>
    <vehicle id="88" depart="24.00" departLane="random" departSpeed="13">
        <route edges="29496808#0 29496808#1 ramp1MergeFrom ramp1Merge ramp1MergeTo" />
    </vehicle>
    <vehicle id="89" depart="24.00" departLane="random" departSpeed="16">
        <route edges="29496808#0 29496808#1 ramp1MergeFrom ramp1Merge ramp1MergeTo" />
    </vehicle>
    <vehicle id="90" depart="25.00" departLane="random" departSpeed="13">
        <route edges="29496808#0 29496808#1 ramp1MergeFrom ramp1Merge ramp1MergeTo" />
    </vehicle>
    <vehicle id="91" depart="26.00" departLane="random" departSpeed="13">
        <route edges="29496808#0 29496808#1 ramp1MergeFrom ramp1Merge ramp1MergeTo" />
    </vehicle>
    <vehicle id="92" depart="26.00" departLane="random" departSpeed="10">
        <route edges="219823957 219822986#2 219822984#0 219822990#0 219860997#0 219860997#1 394700608 479199823 219627712 ramp1 ramp1In ramp1Merge ramp1MergeTo" />
    </vehicle>
    <vehicle id="93" depart="27.00" departLane="random" departSpeed="15">
        <route edges="830650862 830650861#0 219628424 219628429#3 219628429#4 219628429#5 394700612 394700608 479199823 219627712 ramp1 ramp1In ramp1Merge ramp1MergeTo" />
    </vehicle>
    <vehicle id="94" depart="27.00" departLane="random" departSpeed="15">
        <route edges="219823957 219822986#2 219822984#0 219822990#0 219860997#0 219860997#1 394700608 479199823 219627712 ramp1 ramp1In ramp1Merge ramp1MergeTo" />
    </vehicle>
    <vehicle id="95" depart="27.00" departLane="random" departSpeed="11">
        <route edges="29496808#0 29496808#1 ramp1MergeFrom ramp1Merge ramp1MergeTo" />
    </vehicle>
    <vehicle id="96" depart="27.00" departLane="random" departSpeed="13">
        <route edges="29496808#0 29496808#1 ramp1MergeFrom ramp1Merge ramp1MergeTo" />
    </vehicle>
    <vehicle id="97" depart="28.00" departLane="random" departSpeed="11">
        <route edges="29496808#0 29496808#1 ramp1MergeFrom ramp1Merge ramp1MergeTo" />
    </vehicle>
    <vehicle id="98" depart="28.00" departLane="random" departSpeed="16">
        <route edges="29496808#0 29496808#1 ramp1MergeFrom ramp1Merge ramp1MergeTo" />
    </vehicle>
    <vehicle id="99" depart="28.00" departLane="random" departSpeed="14">
        <route edges="29496808#0 29496808#1 ramp1MergeFrom ramp1Merge ramp1MergeTo" />
    </vehicle>
    <vehicle id="100" depart="28.00" departLane="random" departSpeed="10">
        <route edges="29496808#0 29496808#1 ramp1MergeFrom ramp1Merge ramp1MergeTo" />
    </vehicle>
    <vehicle id="101" depart="28.00" departLane="random" departSpeed="16">
        <route edges="29496808#0 29496808#1 ramp1MergeFrom ramp1Merge ramp1MergeTo" />
    </vehicle>
    <vehicle id="102" depart="28.00" departLane="random" departSpeed="16">
        <route edges="29496808#0 29496808#1 ramp1MergeFrom ramp1Merge ramp1MergeTo" />
    </vehicle>
    <vehicle id="103" depart="29.00" departLane="random" departSpeed="15">
        <route edges="219823957 219822986#2 219822984#0 219822990#0 219860997#0 219860997#1 394700608 479199823 219627712 ramp1 ramp1In ramp1Merge ramp1MergeTo" />
    </vehicle>
    <vehicle id="104" depart="29.00" departLane="random" departSpeed="15">
        <route edges="29496808#0 29496808#1 ramp1MergeFrom ramp1Merge ramp1MergeTo" />
    </vehicle>
    <vehicle id="105" depart="29.00" departLane="random" departSpeed="14">
        <route edges="830650862 830650861#0 219628424 219628429#3 219628429#4 219628429#5 394700612 394700608 479199823 219627712 ramp1 ramp1In ramp1Merge ramp1MergeTo" />
    </vehicle>
    <vehicle id="106" depart="30.00" departLane="random" departSpeed="10">
        <route edges="29496808#0 29496808#1 ramp1MergeFrom ramp1Merge ramp1MergeTo" />
    </vehicle>
    <vehicle id="107" depart="30.00" departLane="random" departSpeed="14">
        <route edges="29496808#0 29496808#1 ramp1MergeFrom ramp1Merge ramp1MergeTo" />
    </vehicle>
    <vehicle id="108" depart="31.00" departLane="random" departSpeed="12">
        <route edges="219823957 219822986#2 219822984#0 219822990#0 219860997#0 219860997#1 394700608 479199823 219627712 ramp1 ramp1In ramp1Merge ramp1MergeTo" />
    </vehicle>
    <vehicle id="109" depart="31.00" departLane="random" departSpeed="10">
        <route edges="29496808#0 29496808#1 ramp1MergeFrom ramp1Merge ramp1MergeTo" />
    </vehicle>
    <vehicle id="110" depart="31.00" departLane="random" departSpeed="12">
        <route edges="830650862 830650861#0 219628424 219628429#3 219628429#4 219628429#5 394700612 394700608 479199823 219627712 ramp1 ramp1In ramp1Merge ramp1MergeTo" />
    </vehicle>
    <vehicle id="111" depart="32.00" departLane="random" departSpeed="15">
        <route edges="29496808#0 29496808#1 ramp1MergeFrom ramp1Merge ramp1MergeTo" />
    </vehicle>
    <vehicle id="112" depart="32.00" departLane="random" departSpeed="13">
        <route edges="29496808#0 29496808#1 ramp1MergeFrom ramp1Merge ramp1MergeTo" />
    </vehicle>
    <vehicle id="113" depart="32.00" departLane="random" departSpeed="15">
        <route edges="29496808#0 29496808#1 ramp1MergeFrom ramp1Merge ramp1MergeTo" />
    </vehicle>
    <vehicle id="114" depart="33.00" departLane="random" departSpeed="14">
        <route edges="29496808#0 29496808#1 ramp1MergeFrom ramp1Merge ramp1MergeTo" />
    </vehicle>
    <vehicle id="115" depart="33.00" departLane="random" departSpeed="13">
        <route edges="29496808#0 29496808#1 ramp1MergeFrom ramp1Merge ramp1MergeTo" />
    </vehicle>
    <vehicle id="116" depart="33.00" departLane="random" departSpeed="13">
        <route edges="29496808#0 29496808#1 ramp1MergeFrom ramp1Merge ramp1MergeTo" />
    </vehicle>
    <vehicle id="117" depart="33.00" departLane="random" departSpeed="15">
        <route edges="29496808#0 29496808#1 ramp1MergeFrom ramp1Merge ramp1MergeTo" />
    </vehicle>
    <vehicle id="118" depart="33.00" departLane="random" departSpeed="16">
        <route edges="29496808#0 29496808#1 ramp1MergeFrom ramp1Merge ramp1MergeTo" />
    </vehicle>
    <vehicle id="119" depart="34.00" departLane="random" departSpeed="11">
        <route edges="29496808#0 29496808#1 ramp1MergeFrom ramp1Merge ramp1MergeTo" />
    </vehicle>
    <vehicle id="120" depart="34.00" departLane="random" departSpeed="16">
        <route edges="219823957 219822986#2 219822984#0 219822990#0 219860997#0 219860997#1 394700608 479199823 219627712 ramp1 ramp1In ramp1Merge ramp1MergeTo" />
    </vehicle>
    <vehicle id="121" depart="35.00" departLane="random" departSpeed="15">
        <route edges="29496808#0 29496808#1 ramp1MergeFrom ramp1Merge ramp1MergeTo" />
    </vehicle>
    <vehicle id="122" depart="35.00" departLane="random" departSpeed="16">
        <route edges="29496808#0 29496808#1 ramp1MergeFrom ramp1Merge ramp1MergeTo" />
    </vehicle>
    <vehicle id="123" depart="36.00" departLane="random" departSpeed="11">
        <route edges="29496808#0 29496808#1 ramp1MergeFrom ramp1Merge ramp1MergeTo" />
    </vehicle>
    <vehicle id="124" depart="36.00" departLane="random" departSpeed="10">
        <route edges="830650862 830650861#0 219628424 219628429#3 219628429#4 219628429#5 394700612 394700608 479199823 219627712 ramp1 ramp1In ramp1Merge ramp1MergeTo" />
    </vehicle>
    <vehicle id="125" depart="37.00" departLane="random" departSpeed="16">
        <route edges="830650862 830650861#0 219628424 219628429#3 219628429#4 219628429#5 394700612 394700608 479199823 219627712 ramp1 ramp1In ramp1Merge ramp1MergeTo" />
    </vehicle>
    <vehicle id="126" depart="37.00" departLane="random" departSpeed="14">
        <route edges="830650862 830650861#0 219628424 219628429#3 219628429#4 219628429#5 394700612 394700608 479199823 219627712 ramp1 ramp1In ramp1Merge ramp1MergeTo" />
    </vehicle>
    <vehicle id="127" depart="37.00" departLane="random" departSpeed="14">
        <route edges="29496808#0 29496808#1 ramp1MergeFrom ramp1Merge ramp1MergeTo" />
    </vehicle>
    <vehicle id="128" depart="38.00" departLane="random" departSpeed="15">
        <route edges="29496808#0 29496808#1 ramp1MergeFrom ramp1Merge ramp1MergeTo" />
    </vehicle>
    <vehicle id="129" depart="38.00" departLane="random" departSpeed="11">
        <route edges="29496808#0 29496808#1 ramp1MergeFrom ramp1Merge ramp1MergeTo" />
    </vehicle>
    <vehicle id="130" depart="38.00" departLane="random" departSpeed="11">
        <route edges="29496808#0 29496808#1 ramp1MergeFrom ramp1Merge ramp1MergeTo" />
    </vehicle>
    <vehicle id="131" depart="38.00" departLane="random" departSpeed="12">
        <route edges="29496808#0 29496808#1 ramp1MergeFrom ramp1Merge ramp1MergeTo" />
    </vehicle>
    <vehicle id="132" depart="38.00" departLane="random" departSpeed="13">
        <route edges="29496808#0 29496808#1 ramp1MergeFrom ramp1Merge ramp1MergeTo" />
    </vehicle>
    <vehicle id="133" depart="39.00" departLane="random" departSpeed="15">
        <route edges="29496808#0 29496808#1 ramp1MergeFrom ramp1Merge ramp1MergeTo" />
    </vehicle>
    <vehicle id="134" depart="39.00" departLane="random" departSpeed="14">
        <route edges="29496808#0 29496808#1 ramp1MergeFrom ramp1Merge ramp1MergeTo" />
    </vehicle>
    <vehicle id="135" depart="39.00" departLane="random" departSpeed="12">
        <route edges="29496808#0 29496808#1 ramp1MergeFrom ramp1Merge ramp1MergeTo" />
    </vehicle>
    <vehicle id="136" depart="40.00" departLane="random" departSpeed="12">
        <route edges="29496808#0 29496808#1 ramp1MergeFrom ramp1Merge ramp1MergeTo" />
    </vehicle>
    <vehicle id="137" depart="40.00" departLane="random" departSpeed="12">
        <route edges="29496808#0 29496808#1 ramp1MergeFrom ramp1Merge ramp1MergeTo" />
    </vehicle>
    <vehicle id="138" depart="40.00" departLane="random" departSpeed="15">
        <route edges="29496808#0 29496808#1 ramp1MergeFrom ramp1Merge ramp1MergeTo" />
    </vehicle>
    <vehicle id="139" depart="40.00" departLane="random" departSpeed="14">
        <route edges="29496808#0 29496808#1 ramp1MergeFrom ramp1Merge ramp1MergeTo" />
    </vehicle>
    <vehicle id="140" depart="41.00" departLane="random" departSpeed="16">
        <route edges="29496808#0 29496808#1 ramp1MergeFrom ramp1Merge ramp1MergeTo" />
    </vehicle>
    <vehicle id="141" depart="41.00" departLane="random" departSpeed="16">
        <route edges="29496808#0 29496808#1 ramp1MergeFrom ramp1Merge ramp1MergeTo" />
    </vehicle>
    <vehicle id="142" depart="42.00" departLane="random" departSpeed="10">
        <route edges="29496808#0 29496808#1 ramp1MergeFrom ramp1Merge ramp1MergeTo" />
    </vehicle>
    <vehicle id="143" depart="42.00" departLane="random" departSpeed="14">
        <route edges="29496808#0 29496808#1 ramp1MergeFrom ramp1Merge ramp1MergeTo" />
    </vehicle>
    <vehicle id="144" depart="43.00" departLane="random" departSpeed="14">
        <route edges="219823957 219822986#2 219822984#0 219822990#0 219860997#0 219860997#1 394700608 479199823 219627712 ramp1 ramp1In ramp1Merge ramp1MergeTo" />
    </vehicle>
    <vehicle id="145" depart="43.00" departLane="random" departSpeed="13">
        <route edges="29496808#0 29496808#1 ramp1MergeFrom ramp1Merge ramp1MergeTo" />
    </vehicle>
    <vehicle id="146" depart="43.00" departLane="random" departSpeed="10">
        <route edges="29496808#0 29496808#1 ramp1MergeFrom ramp1Merge ramp1MergeTo" />
    </vehicle>
    <vehicle id="147" depart="44.00" departLane="random" departSpeed="14">
        <route edges="830650862 830650861#0 219628424 219628429#3 219628429#4 219628429#5 394700612 394700608 479199823 219627712 ramp1 ramp1In ramp1Merge ramp1MergeTo" />
    </vehicle>
    <vehicle id="148" depart="44.00" departLane="random" departSpeed="13">
        <route edges="29496808#0 29496808#1 ramp1MergeFrom ramp1Merge ramp1MergeTo" />
    </vehicle>
    <vehicle id="149" depart="44.00" departLane="random" departSpeed="11">
        <route edges="830650862 830650861#0 219628424 219628429#3 219628429#4 219628429#5 394700612 394700608 479199823 219627712 ramp1 ramp1In ramp1Merge ramp1MergeTo" />
    </vehicle>
    <vehicle id="150" depart="44.00" departLane="random" departSpeed="16">
        <route edges="29496808#0 29496808#1 ramp1MergeFrom ramp1Merge ramp1MergeTo" />
    </vehicle>
    <vehicle id="151" depart="44.00" departLane="random" departSpeed="16">
        <route edges="29496808#0 29496808#1 ramp1MergeFrom ramp1Merge ramp1MergeTo" />
    </vehicle>
    <vehicle id="152" depart="44.00" departLane="random" departSpeed="12">
        <route edges="29496808#0 29496808#1 ramp1MergeFrom ramp1Merge ramp1MergeTo" />
    </vehicle>
    <vehicle id="153" depart="45.00" departLane="random" departSpeed="10">
        <route edges="219823957 219822986#2 219822984#0 219822990#0 219860997#0 219860997#1 394700608 479199823 219627712 ramp1 ramp1In ramp1Merge ramp1MergeTo" />
    </vehicle>