<?xml version="1.0" encoding="UTF-8"?>

<!-- generated on 2023-10-31 21:51:52 by Eclipse SUMO duarouter Version 1.18.0
<configuration xmlns:xsi="http://www.w3.org/2001/XMLSchema-instance" xsi:noNamespaceSchemaLocation="http://sumo.dlr.de/xsd/duarouterConfiguration.xsd">

    <input>
        <net-file value="test4.net.xml"/>
        <route-files value="trips.trips.xml"/>
    </input>

    <output>
        <output-file value="test4.rou.xml"/>
    </output>

</configuration>
-->

<routes xmlns:xsi="http://www.w3.org/2001/XMLSchema-instance" xsi:noNamespaceSchemaLocation="http://sumo.dlr.de/xsd/routes_file.xsd">
    <vehicle id="4" depart="4.00">
        <route edges="219822990#0 219860997#0 219860997#1 394700608 479199823 219627712"/>
    </vehicle>
    <vehicle id="6" depart="6.00">
        <route edges="219627713 219628427 219628434 219628428 478190549 219628426#0 219628426#1 219628429#4 219628429#5"/>
    </vehicle>
    <vehicle id="9" depart="9.00">
        <route edges="830650861#0 219628424 219628429#3 219628429#4 219628429#5 219822986#0 185495393"/>
    </vehicle>
    <vehicle id="11" depart="11.00">
        <route edges="219822985#1 219822990#2 219628429#0 219628429#1 219628429#2 219628429#3 219628429#4"/>
    </vehicle>
    <vehicle id="13" depart="13.00">
        <route edges="219628426#1"/>
    </vehicle>
    <vehicle id="21" depart="21.00">
        <route edges="219628432 219628433"/>
    </vehicle>
    <vehicle id="22" depart="22.00">
        <route edges="219628425#1 478181243 478181242 219628432"/>
    </vehicle>
    <vehicle id="23" depart="23.00">
        <route edges="219628426#1 219628429#4 219628430 219628425#1 478181243 478181242 219628432 219628433"/>
    </vehicle>
    <vehicle id="29" depart="29.00">
        <route edges="219628429#4 219628429#5 219822986#0 219822986#1 219822986#2 219822984#0 219822984#1 -364638850 219822985#1"/>
    </vehicle>
    <vehicle id="31" depart="31.00">
        <route edges="29496808#0 29496808#1 29496808#2"/>
    </vehicle>
    <vehicle id="34" depart="34.00">
        <route edges="219822984#0 219822990#0 219822990#1 219822990#2 219628429#0 364638851 478181243 478181242 219628432 219628433"/>
    </vehicle>
    <vehicle id="40" depart="40.00">
        <route edges="29496808#0 219822989 219822991 219860999 219860996 478966536 219822988 394700607 219822984#0 219822990#0 219822990#1 219822990#2 219628429#0 364638851 478181243 478181242 219628432 219628433"/>
    </vehicle>
    <vehicle id="41" depart="41.00">
        <route edges="29496808#0 219822989 219822991 219860999 219860996 478966536 219822988 394700607 219822984#0 219822984#1 219822984#2 830650861#4 1154482313#0 830653154#8 830653154#9"/>
    </vehicle>
    <vehicle id="42" depart="42.00">
        <route edges="219822988 394700607 219822984#0 219822990#0 219822990#1 219822990#2 219628429#0 219628429#1 219628429#2 219628429#3 219628429#4 219628430"/>
    </vehicle>
    <vehicle id="47" depart="47.00">
        <route edges="219628424 219628429#3 219628429#4 219628429#5 219822986#0 219822986#1 219822986#2 219822984#0 219822984#1 -364638850 219822985#1"/>
    </vehicle>
    <vehicle id="53" depart="53.00">
        <route edges="219628427 219628434 219628428 478190549 219628426#0 219628426#1 219628429#4 219628429#5 394700612 394700608 479199823 219627712 219822987"/>
    </vehicle>
    <vehicle id="54" depart="54.00">
        <route edges="219822991 219860999 219860996 478966536 219822988 394700607 219822984#0 219822984#1 219822984#2 830650861#4 1154482313#0 830653154#8 830653154#9"/>
    </vehicle>
    <vehicle id="56" depart="56.00">
        <route edges="219860996 478966536 219822988 394700607 219822984#0 219822990#0 219822990#1 219822990#2 219628429#0 219628429#1 219628429#2 219628429#3 219628429#4 219628429#5"/>
    </vehicle>
    <vehicle id="63" depart="63.00">
        <route edges="219627713 219628427 219628434 219628428 478190549 219628426#0 219628426#1 219628429#4 219628429#5 219822986#0 219822986#1 219822986#2 219822984#0 219822984#1 219822984#2 830650861#4 1154482313#0 830653154#8 830653154#9"/>
    </vehicle>
    <vehicle id="66" depart="66.00">
        <route edges="830650861#4 1154482313#0 830653154#8 830653154#9"/>
    </vehicle>
    <vehicle id="70" depart="70.00">
        <route edges="219823957 219822986#2 219822984#0 219822990#0 219860997#0"/>
    </vehicle>
    <vehicle id="72" depart="72.00">
        <route edges="219822990#0 219822990#1 219822990#2 219628429#0 219628429#1 219628429#2 219628429#3 219628429#4 219628430"/>
    </vehicle>
    <vehicle id="77" depart="77.00">
        <route edges="219628427 219628434 219628428 478190549 219628426#0 219628426#1 219628429#4 219628429#5 219822986#0 219822986#1 219822986#2 219822984#0 219822990#0 219822990#1 219822990#2 219628429#0 219628429#1 219628431"/>
    </vehicle>
    <vehicle id="78" depart="78.00">
        <route edges="219822985#0 219822985#1 219822990#2 219628429#0 219628429#1 219628429#2 219628429#3 219628429#4 219628429#5 219822986#0 219822986#1 219822986#2 219822984#0 219822990#0 219860997#0 219860997#1"/>
    </vehicle>
    <vehicle id="82" depart="82.00">
        <route edges="830650861#2 219822985#0 219822985#1 219822990#2 219628429#0 219628429#1 219628429#2 219628429#3 219628429#4 219628430 219628425#1"/>
    </vehicle>
    <vehicle id="84" depart="84.00">
        <route edges="219628431 830650861#2 219822985#0 219822985#1 219822990#2 219628429#0 219628429#1"/>
    </vehicle>
    <vehicle id="88" depart="88.00">
        <route edges="219628426#1 219628429#4 219628429#5 394700612 394700608 479199823 219627712 219822987"/>
    </vehicle>
    <vehicle id="92" depart="92.00">
        <route edges="219822989 219822991 219860999 219860996 478966536 219822988 394700607 219822984#0"/>
    </vehicle>
    <vehicle id="95" depart="95.00">
        <route edges="219822990#0 219822990#1 219822990#2 219628429#0 364638851 478181243 478181242 219628432 219628433"/>
    </vehicle>
    <vehicle id="97" depart="97.00">
        <route edges="219822991 219860999 219860996 478966536 219822988 394700607 219822984#0 219822984#1 219822984#2 830650861#4 830650861#5"/>
    </vehicle>
    <vehicle id="100" depart="100.00">
        <route edges="830653154#9"/>
    </vehicle>
    <vehicle id="101" depart="101.00">
        <route edges="830650861#2 219822985#0 219822985#1 219822990#2 219628429#0 219628429#1 219628429#2 219628429#3 219628429#4"/>
    </vehicle>
    <vehicle id="102" depart="102.00">
        <route edges="219823957 219822986#2 219822984#0 219822990#0 219822990#1 219822990#2 219628429#0 219628429#1 219628429#2 219628429#3 219628429#4 219628430"/>
    </vehicle>
    <vehicle id="106" depart="106.00">
        <route edges="219822991 219860999 219860996 478966536 219822988 219860998 219860997#1 394700608 479199823 219627712 219822987"/>
    </vehicle>
    <vehicle id="107" depart="107.00">
        <route edges="830653154#9 833484979"/>
    </vehicle>
    <vehicle id="108" depart="108.00">
        <route edges="219860999 219860996 478966536 219822988 394700607"/>
    </vehicle>
    <vehicle id="109" depart="109.00">
        <route edges="219628429#4 219628430 219628425#1 478181243 478181242 219628432 219628433"/>
    </vehicle>
    <vehicle id="111" depart="111.00">
        <route edges="219860998 219860997#1 394700608"/>
    </vehicle>
    <vehicle id="112" depart="112.00">
        <route edges="219627713 219628427 219628434 219628428 478190549 219628426#0 219628426#1 219628429#4 219628429#5 219822986#0 219822986#1 219822986#2 219822984#0 219822990#0 219860997#0 219860997#1"/>
    </vehicle>
    <vehicle id="114" depart="114.00">
        <route edges="219628429#4 219628429#5 219822986#0 219822986#1 219822986#2 219822984#0 219822984#1 219822984#2 830650861#4 1154482313#0 830653154#8 830653154#9"/>
    </vehicle>
    <vehicle id="116" depart="116.00">
        <route edges="29496808#1"/>
    </vehicle>
    <vehicle id="119" depart="119.00">
        <route edges="29496808#1"/>
    </vehicle>
    <vehicle id="120" depart="120.00">
        <route edges="219822989 219822991 219860999 219860996 478966536 219822988 219860998 219860997#1"/>
    </vehicle>
    <vehicle id="124" depart="124.00">
        <route edges="394700607 219822984#0 219822990#0 219822990#1 219822990#2 219628429#0 364638851 478181243 478181242 219628432 219628433"/>
    </vehicle>
    <vehicle id="125" depart="125.00">
        <route edges="219822984#1 -364638850 219822985#1 219822990#2 219628429#0 219628429#1 219628429#2 219628429#3 219628429#4 219628429#5 394700612"/>
    </vehicle>
    <vehicle id="127" depart="127.00">
        <route edges="833484979"/>
    </vehicle>
    <vehicle id="130" depart="130.00">
        <route edges="830650861#4 1154482313#0 830653154#8 830653154#9 830653154#10 830653154#11 830653153"/>
    </vehicle>
    <vehicle id="132" depart="132.00">
        <route edges="830650861#2 219822985#0 219822985#1 219822990#2 219628429#0 219628429#1 219628429#2 219628429#3 219628429#4 219628429#5 394700612 394700608 479199823 219627712 219822987 29496808#2"/>
    </vehicle>
    <vehicle id="135" depart="135.00">
        <route edges="830650861#1 830650861#2 219822985#0 219822985#1 219822990#2 219628429#0 364638851 478181243 478181242 219628432 219628433"/>
    </vehicle>
    <vehicle id="136" depart="136.00">
        <route edges="394700607 219822984#0 219822984#1 219822984#2 830650861#4 1154482313#0 830653154#8 830653154#9"/>
    </vehicle>
    <vehicle id="138" depart="138.00">
        <route edges="219628426#1 219628429#4 219628429#5 219822986#0 219822986#1 219822986#2 219822984#0 219822990#0 219860997#0"/>
    </vehicle>
    <vehicle id="142" depart="142.00">
        <route edges="219823957 219822986#2 219822984#0 219822984#1 219822984#2 830650861#4 1154482313#0 830653154#8 830653154#9"/>
    </vehicle>
    <vehicle id="144" depart="144.00">
        <route edges="219822990#0 219822990#1 219822990#2 219628429#0 364638851 478181243 478181242 219628432 219628433"/>
    </vehicle>
    <vehicle id="148" depart="148.00">
        <route edges="219822990#2 219628429#0 219628429#1 219628429#2 219628429#3 219628429#4 219628429#5 219822986#0 185495393"/>
    </vehicle>
    <vehicle id="151" depart="151.00">
        <route edges="830650861#2 219822985#0 219822985#1 219822990#2 219628429#0 219628429#1 219628429#2 219628429#3 219628429#4 219628429#5 219822986#0 219822986#1 219822986#2 219822984#0 219822990#0 219860997#0 219860997#1"/>
    </vehicle>
    <vehicle id="152" depart="152.00">
        <route edges="219628429#3 219628429#4 219628429#5 219822986#0 219822986#1 219822986#2 219822984#0 219822990#0 219822990#1 219822990#2 219628429#0 219628429#1"/>
    </vehicle>
    <vehicle id="153" depart="153.00">
        <route edges="219822984#0 219822984#1 219822984#2 830650861#4 1154482313#0 830653154#8 830653154#9"/>
    </vehicle>
    <vehicle id="159" depart="159.00">
        <route edges="219628429#4 219628429#5 219822986#0 219822986#1 219822986#2 219822984#0 219822984#1 219822984#2 830650861#4 1154482313#0 830653154#8 830653154#9"/>
    </vehicle>
    <vehicle id="161" depart="161.00">
        <route edges="830650861#0 830650861#1 830650861#2 830650861#3 830650861#4 1154482313#0 830653154#8 830653154#9 830653154#10 830653154#11 830653153"/>
    </vehicle>
    <vehicle id="163" depart="163.00">
        <route edges="219822985#0 364638850 219822984#2 830650861#4 1154482313#0 830653154#8 830653154#9"/>
    </vehicle>
    <vehicle id="165" depart="165.00">
        <route edges="830650861#0 219628424 219628429#3 219628429#4 219628430 219628425#1 478181243 478181242 219628432 219628433"/>
    </vehicle>
    <vehicle id="167" depart="167.00">
        <route edges="830650861#3 830650861#4"/>
    </vehicle>
    <vehicle id="169" depart="169.00">
        <route edges="219822991 219860999 219860996 478966536 219822988 394700607 219822984#0 219822990#0 219822990#1 219822990#2 219628429#0 364638851 478181243 478181242 219628432 219628433"/>
    </vehicle>
    <vehicle id="171" depart="171.00">
        <route edges="219627713 219628427 219628434 219628428 478190549 219628426#0 219628426#1 219628429#4 219628429#5"/>
    </vehicle>
    <vehicle id="172" depart="172.00">
        <route edges="219822984#2 830650861#4 830650861#5"/>
    </vehicle>
    <vehicle id="179" depart="179.00">
        <route edges="219628426#1 219628429#4 219628429#5 394700612 394700608 479199823 219627712 219822987"/>
    </vehicle>
    <vehicle id="187" depart="187.00">
        <route edges="219822986#2 219822984#0 219822990#0 219822990#1 219822990#2 219628429#0 219628429#1 219628429#2 219628429#3 219628429#4 219628430 219628425#1"/>
    </vehicle>
    <vehicle id="188" depart="188.00">
        <route edges="394700607 219822984#0"/>
    </vehicle>
    <vehicle id="189" depart="189.00">
        <route edges="219822984#0 219822990#0 219822990#1 219822990#2 219628429#0 219628429#1 219628431 830650861#2 830650861#3"/>
    </vehicle>
    <vehicle id="191" depart="191.00">
        <route edges="219822984#0 219822990#0 219822990#1 219822990#2 219628429#0 219628429#1 219628429#2 219628429#3 219628429#4 219628429#5 219822986#0 219822986#1 219822986#2"/>
    </vehicle>
    <vehicle id="192" depart="192.00">
        <route edges="219822989 219822991 219860999 219860996 478966536 219822988 394700607 219822984#0 219822990#0 219822990#1 219822990#2 219628429#0 364638851 478181243 478181242 219628432 219628433"/>
    </vehicle>
    <vehicle id="193" depart="193.00">
        <route edges="219628428 478190549 219628426#0 219628426#1 219628429#4 219628429#5 394700612 394700608 479199823 219627712 219822987"/>
    </vehicle>
    <vehicle id="196" depart="196.00">
        <route edges="219822984#0 219822990#0 219860997#0"/>
    </vehicle>
    <vehicle id="198" depart="198.00">
        <route edges="219822990#2 219628429#0 219628429#1 219628429#2 219628429#3 219628429#4 219628429#5 219822986#0 219822986#1 219822986#2 219822984#0 219822990#0 219860997#0 219860997#1"/>
    </vehicle>
</routes>
