<?xml version="1.0" encoding="UTF-8"?>

<configuration xmlns:xsi="http://www.w3.org/2001/XMLSchema-instance"
               xsi:noNamespaceSchemaLocation="http://sumo.dlr.de/xsd/sumoConfiguration.xsd">

    <input>
        <net-file value="test4_1.net.xml"/>
        <route-files value="test4_2.rou.xml"/>
        <gui-settings-file value="viewsettings.xml"/>
    </input>


</configuration>
