<?xml version="1.0" encoding="UTF-8"?>
<routes><trip id="0" depart="0" from="219823957" to="833484978" /><trip id="1" depart="0" from="29496808#0" to="29496808#2.341" /><trip id="2" depart="1" from="29496808#0" to="29496808#2.341" /><trip id="3" depart="2" from="55083473#1.4.32" to="55083473#2" /><trip id="4" depart="2" from="55083473#1.4.32" to="830653153" /><trip id="5" depart="4" from="830650862" to="830650861#5" /><trip id="6" depart="4" from="830650862" to="830650861#5" /><trip id="7" depart="5" from="55083473#1.4.32" to="55083473#2" /><trip id="8" depart="6" from="55083473#1.4.32" to="830650861#5" /><trip id="9" depart="7" from="29496808#0" to="830653153" /><trip id="10" depart="10" from="55083473#1.4.32" to="55083473#2" /><trip id="11" depart="10" from="29496808#0" to="29496808#2.341" /><trip id="12" depart="11" from="29496808#0" to="29496808#2.341" /><trip id="13" depart="12" from="55083473#1.4.32" to="55083473#2" /><trip id="14" depart="12" from="830653154#7" to="830653153" /><trip id="15" depart="12" from="29496808#0" to="29496808#2.341" /><trip id="16" depart="14" from="29496808#0" to="29496808#2.341" /><trip id="17" depart="14" from="29496808#0" to="29496808#2.341" /><trip id="18" depart="14" from="29496808#0" to="830653153" /><trip id="19" depart="15" from="29496808#0" to="29496808#2.341" /><trip id="20" depart="15" from="29496808#0" to="29496808#2.341" /><trip id="21" depart="15" from="29496808#0" to="29496808#2.341" /><trip id="22" depart="16" from="830650862" to="830650861#5" /><trip id="23" depart="16" from="830650862" to="185495393" /><trip id="24" depart="16" from="55083473#1.4.32" to="55083473#2" /><trip id="25" depart="16" from="830653154#7" to="830653153" /><trip id="26" depart="17" from="830650862" to="830650861#5" /><trip id="27" depart="17" from="29496808#0" to="29496808#2.341" /><trip id="28" depart="18" from="29496808#0" to="29496808#2.341" /><trip id="29" depart="19" from="55083473#1.4.32" to="55083473#2" /><trip id="30" depart="19" from="29496808#0" to="29496808#2.341" /><trip id="31" depart="20" from="830650862" to="55083473#2" /><trip id="32" depart="20" from="55083473#1.4.32" to="55083473#2" /><trip id="33" depart="20" from="55083473#1.4.32" to="55083473#2" /><trip id="34" depart="22" from="55083473#1.4.32" to="55083473#2" /><trip id="35" depart="23" from="830653154#7" to="833484978" /><trip id="36" depart="23" from="55083473#1.4.32" to="55083473#2" /><trip id="37" depart="23" from="29496808#0" to="29496808#2.341" /><trip id="38" depart="24" from="55083473#1.4.32" to="55083473#2" /><trip id="39" depart="25" from="55083473#1.4.32" to="55083473#2" /><trip id="40" depart="25" from="830650862" to="830650861#5" /><trip id="41" depart="28" from="29496808#0" to="29496808#2.341" /><trip id="42" depart="29" from="55083473#1.4.32" to="55083473#2" /><trip id="43" depart="29" from="55083473#1.4.32" to="55083473#2" /><trip id="44" depart="29" from="55083473#1.4.32" to="55083473#2" /><trip id="45" depart="31" from="55083473#1.4.32" to="55083473#2" /><trip id="46" depart="32" from="830650862" to="185495393" /><trip id="47" depart="32" from="29496808#0" to="29496808#2.341" /><trip id="48" depart="33" from="55083473#1.4.32" to="29496808#2.341" /><trip id="49" depart="34" from="55083473#1.4.32" to="55083473#2" /><trip id="50" depart="34" from="219823957" to="55083473#2" /><trip id="51" depart="35" from="29496808#0" to="29496808#2.341" /><trip id="52" depart="36" from="55083473#1.4.32" to="55083473#2" /><trip id="53" depart="37" from="830653154#7" to="830650861#5" /><trip id="54" depart="38" from="29496808#0" to="29496808#2.341" /><trip id="55" depart="38" from="55083473#1.4.32" to="55083473#2" /><trip id="56" depart="38" from="29496808#0" to="29496808#2.341" /><trip id="57" depart="39" from="29496808#0" to="29496808#2.341" /><trip id="58" depart="40" from="29496808#0" to="29496808#2.341" /><trip id="59" depart="41" from="830650862" to="830650861#5" /><trip id="60" depart="42" from="55083473#1.4.32" to="55083473#2" /><trip id="61" depart="42" from="830650862" to="830653153" /><trip id="62" depart="43" from="55083473#1.4.32" to="29496808#2.341" /><trip id="63" depart="43" from="29496808#0" to="29496808#2.341" /><trip id="64" depart="43" from="55083473#1.4.32" to="55083473#2" /><trip id="65" depart="44" from="219823957" to="29496808#2.341" /><trip id="66" depart="45" from="219823957" to="29496808#2.341" /><trip id="67" depart="45" from="219823957" to="55083473#2" /><trip id="68" depart="46" from="830650862" to="833484978" /><trip id="69" depart="47" from="29496808#0" to="29496808#2.341" /><trip id="70" depart="47" from="55083473#1.4.32" to="55083473#2" /><trip id="71" depart="47" from="830650862" to="185495393" /><trip id="72" depart="47" from="830650862" to="830650861#5" /><trip id="73" depart="49" from="29496808#0" to="29496808#2.341" /><trip id="74" depart="49" from="29496808#0" to="29496808#2.341" /><trip id="75" depart="49" from="29496808#0" to="29496808#2.341" /><trip id="76" depart="49" from="830650862" to="29496808#2.341" /><trip id="77" depart="49" from="833484977" to="830653153" /><trip id="78" depart="49" from="830650862" to="29496808#2.341" /><trip id="79" depart="49" from="55083473#1.4.32" to="55083473#2" /><trip id="80" depart="50" from="55083473#1.4.32" to="55083473#2" /><trip id="81" depart="50" from="55083473#1.4.32" to="55083473#2" /><trip id="82" depart="52" from="29496808#0" to="185495393" /><trip id="83" depart="52" from="55083473#1.4.32" to="55083473#2" /><trip id="84" depart="52" from="29496808#0" to="29496808#2.341" /><trip id="85" depart="54" from="29496808#0" to="29496808#2.341" /><trip id="86" depart="55" from="55083473#1.4.32" to="55083473#2" /><trip id="87" depart="55" from="29496808#0" to="833484978" /><trip id="88" depart="55" from="29496808#0" to="29496808#2.341" /><trip id="89" depart="55" from="830650862" to="830653153" /><trip id="90" depart="58" from="29496808#0" to="29496808#2.341" /><trip id="91" depart="58" from="219823957" to="830653153" /><trip id="92" depart="58" from="830650862" to="830650861#5" /><trip id="93" depart="59" from="55083473#1.4.32" to="55083473#2" /><trip id="94" depart="60" from="830650862" to="55083473#2" /><trip id="95" depart="60" from="55083473#1.4.32" to="55083473#2" /><trip id="96" depart="61" from="29496808#0" to="833484978" /><trip id="97" depart="61" from="29496808#0" to="833484978" /><trip id="98" depart="61" from="29496808#0" to="29496808#2.341" /><trip id="99" depart="62" from="830653154#7" to="830650861#5" /><trip id="100" depart="62" from="29496808#0" to="29496808#2.341" /><trip id="101" depart="63" from="55083473#1.4.32" to="55083473#2" /><trip id="102" depart="63" from="55083473#1.4.32" to="55083473#2" /><trip id="103" depart="64" from="55083473#1.4.32" to="55083473#2" /><trip id="104" depart="65" from="219823957" to="55083473#2" /><trip id="105" depart="66" from="29496808#0" to="29496808#2.341" /><trip id="106" depart="67" from="29496808#0" to="29496808#2.341" /><trip id="107" depart="67" from="830650862" to="55083473#2" /><trip id="108" depart="68" from="55083473#1.4.32" to="55083473#2" /><trip id="109" depart="68" from="830650862" to="29496808#2.341" /><trip id="110" depart="69" from="55083473#1.4.32" to="55083473#2" /><trip id="111" depart="69" from="29496808#0" to="833484978" /><trip id="112" depart="70" from="55083473#1.4.32" to="55083473#2" /><trip id="113" depart="71" from="29496808#0" to="29496808#2.341" /><trip id="114" depart="71" from="29496808#0" to="29496808#2.341" /><trip id="115" depart="71" from="29496808#0" to="29496808#2.341" /><trip id="116" depart="72" from="29496808#0" to="29496808#2.341" /><trip id="117" depart="72" from="29496808#0" to="29496808#2.341" /><trip id="118" depart="73" from="29496808#0" to="830653153" /><trip id="119" depart="73" from="29496808#0" to="29496808#2.341" /><trip id="120" depart="74" from="29496808#0" to="29496808#2.341" /><trip id="121" depart="74" from="830650862" to="830650861#5" /><trip id="122" depart="74" from="219823957" to="55083473#2" /><trip id="123" depart="74" from="219823957" to="833484978" /><trip id="124" depart="75" from="29496808#0" to="29496808#2.341" /><trip id="125" depart="76" from="29496808#0" to="29496808#2.341" /><trip id="126" depart="76" from="55083473#1.4.32" to="55083473#2" /><trip id="127" depart="77" from="55083473#1.4.32" to="55083473#2" /><trip id="128" depart="77" from="830650862" to="29496808#2.341" /><trip id="129" depart="78" from="55083473#1.4.32" to="55083473#2" /><trip id="130" depart="78" from="55083473#1.4.32" to="55083473#2" /><trip id="131" depart="79" from="55083473#1.4.32" to="55083473#2" /><trip id="132" depart="80" from="29496808#0" to="29496808#2.341" /><trip id="133" depart="80" from="55083473#1.4.32" to="55083473#2" /><trip id="134" depart="81" from="55083473#1.4.32" to="55083473#2" /><trip id="135" depart="81" from="29496808#0" to="29496808#2.341" /><trip id="136" depart="81" from="830650862" to="830650861#5" /><trip id="137" depart="81" from="29496808#0" to="29496808#2.341" /><trip id="138" depart="81" from="29496808#0" to="29496808#2.341" /><trip id="139" depart="82" from="830653154#7" to="830653153" /><trip id="140" depart="82" from="830650862" to="830650861#5" /><trip id="141" depart="83" from="830653154#7" to="833484978" /><trip id="142" depart="83" from="29496808#0" to="29496808#2.341" /><trip id="143" depart="83" from="55083473#1.4.32" to="830650861#5" /><trip id="144" depart="83" from="29496808#0" to="29496808#2.341" /><trip id="145" depart="84" from="219823957" to="833484978" /><trip id="146" depart="84" from="55083473#1.4.32" to="830650861#5" /><trip id="147" depart="84" from="55083473#1.4.32" to="55083473#2" /><trip id="148" depart="85" from="55083473#1.4.32" to="830653153" /><trip id="149" depart="85" from="29496808#0" to="29496808#2.341" /><trip id="150" depart="85" from="55083473#1.4.32" to="55083473#2" /><trip id="151" depart="86" from="219823957" to="830650861#5" /><trip id="152" depart="87" from="29496808#0" to="29496808#2.341" /><trip id="153" depart="87" from="55083473#1.4.32" to="29496808#2.341" /><trip id="154" depart="88" from="55083473#1.4.32" to="55083473#2" /><trip id="155" depart="89" from="55083473#1.4.32" to="55083473#2" /><trip id="156" depart="90" from="29496808#0" to="29496808#2.341" /><trip id="157" depart="90" from="830650862" to="830650861#5" /><trip id="158" depart="92" from="29496808#0" to="29496808#2.341" /><trip id="159" depart="94" from="55083473#1.4.32" to="55083473#2" /><trip id="160" depart="94" from="55083473#1.4.32" to="185495393" /><trip id="161" depart="95" from="219823957" to="830653153" /><trip id="162" depart="95" from="55083473#1.4.32" to="55083473#2" /><trip id="163" depart="96" from="29496808#0" to="29496808#2.341" /><trip id="164" depart="96" from="29496808#0" to="830650861#5" /><trip id="165" depart="96" from="29496808#0" to="29496808#2.341" /><trip id="166" depart="98" from="830650862" to="29496808#2.341" /><trip id="167" depart="98" from="55083473#1.4.32" to="55083473#2" /><trip id="168" depart="98" from="55083473#1.4.32" to="830650861#5" /><trip id="169" depart="98" from="29496808#0" to="29496808#2.341" /><trip id="170" depart="98" from="830653154#7" to="830650861#5" /><trip id="171" depart="99" from="55083473#1.4.32" to="55083473#2" /><trip id="172" depart="99" from="29496808#0" to="29496808#2.341" /><trip id="173" depart="100" from="219823957" to="830653153" /><trip id="174" depart="100" from="29496808#0" to="29496808#2.341" /><trip id="175" depart="100" from="29496808#0" to="29496808#2.341" /><trip id="176" depart="101" from="830650862" to="830650861#5" /><trip id="177" depart="101" from="219823957" to="830650861#5" /><trip id="178" depart="101" from="29496808#0" to="29496808#2.341" /><trip id="179" depart="104" from="55083473#1.4.32" to="55083473#2" /><trip id="180" depart="105" from="55083473#1.4.32" to="55083473#2" /><trip id="181" depart="105" from="29496808#0" to="830650861#5" /><trip id="182" depart="106" from="55083473#1.4.32" to="55083473#2" /><trip id="183" depart="106" from="29496808#0" to="29496808#2.341" /><trip id="184" depart="107" from="55083473#1.4.32" to="830650861#5" /><trip id="185" depart="107" from="29496808#0" to="29496808#2.341" /><trip id="186" depart="108" from="833484977" to="830653153" /><trip id="187" depart="108" from="830650862" to="830650861#5" /><trip id="188" depart="108" from="29496808#0" to="29496808#2.341" /><trip id="189" depart="109" from="29496808#0" to="29496808#2.341" /><trip id="190" depart="109" from="55083473#1.4.32" to="830653153" /><trip id="191" depart="110" from="219823957" to="830653153" /><trip id="192" depart="111" from="55083473#1.4.32" to="830650861#5" /><trip id="193" depart="111" from="29496808#0" to="29496808#2.341" /><trip id="194" depart="111" from="55083473#1.4.32" to="185495393" /><trip id="195" depart="114" from="830650862" to="185495393" /><trip id="196" depart="114" from="29496808#0" to="830653153" /><trip id="197" depart="116" from="29496808#0" to="29496808#2.341" /><trip id="198" depart="116" from="29496808#0" to="29496808#2.341" /><trip id="199" depart="117" from="830650862" to="29496808#2.341" /><trip id="200" depart="117" from="55083473#1.4.32" to="55083473#2" /><trip id="201" depart="117" from="830653154#7" to="833484978" /><trip id="202" depart="117" from="830653154#7" to="830653153" /><trip id="203" depart="118" from="29496808#0" to="29496808#2.341" /><trip id="204" depart="118" from="29496808#0" to="29496808#2.341" /><trip id="205" depart="119" from="29496808#0" to="29496808#2.341" /><trip id="206" depart="120" from="29496808#0" to="833484978" /><trip id="207" depart="121" from="55083473#1.4.32" to="55083473#2" /><trip id="208" depart="121" from="55083473#1.4.32" to="55083473#2" /><trip id="209" depart="122" from="29496808#0" to="29496808#2.341" /><trip id="210" depart="123" from="55083473#1.4.32" to="55083473#2" /><trip id="211" depart="123" from="55083473#1.4.32" to="55083473#2" /><trip id="212" depart="124" from="55083473#1.4.32" to="55083473#2" /><trip id="213" depart="124" from="29496808#0" to="29496808#2.341" /><trip id="214" depart="124" from="55083473#1.4.32" to="55083473#2" /><trip id="215" depart="125" from="55083473#1.4.32" to="55083473#2" /><trip id="216" depart="126" from="55083473#1.4.32" to="55083473#2" /><trip id="217" depart="126" from="29496808#0" to="29496808#2.341" /><trip id="218" depart="127" from="29496808#0" to="29496808#2.341" /><trip id="219" depart="128" from="29496808#0" to="29496808#2.341" /><trip id="220" depart="128" from="55083473#1.4.32" to="55083473#2" /><trip id="221" depart="128" from="29496808#0" to="29496808#2.341" /><trip id="222" depart="129" from="219823957" to="29496808#2.341" /><trip id="223" depart="129" from="29496808#0" to="185495393" /><trip id="224" depart="130" from="55083473#1.4.32" to="185495393" /><trip id="225" depart="131" from="55083473#1.4.32" to="55083473#2" /><trip id="226" depart="132" from="55083473#1.4.32" to="55083473#2" /><trip id="227" depart="132" from="29496808#0" to="29496808#2.341" /><trip id="228" depart="133" from="29496808#0" to="29496808#2.341" /><trip id="229" depart="133" from="55083473#1.4.32" to="55083473#2" /><trip id="230" depart="136" from="55083473#1.4.32" to="55083473#2" /><trip id="231" depart="136" from="830650862" to="833484978" /><trip id="232" depart="138" from="830650862" to="830650861#5" /><trip id="233" depart="138" from="29496808#0" to="29496808#2.341" /><trip id="234" depart="140" from="55083473#1.4.32" to="55083473#2" /><trip id="235" depart="141" from="833484977" to="830653153" /><trip id="236" depart="142" from="55083473#1.4.32" to="29496808#2.341" /><trip id="237" depart="142" from="830653154#7" to="833484978" /><trip id="238" depart="143" from="29496808#0" to="29496808#2.341" /><trip id="239" depart="143" from="55083473#1.4.32" to="55083473#2" /><trip id="240" depart="143" from="29496808#0" to="29496808#2.341" /><trip id="241" depart="144" from="55083473#1.4.32" to="55083473#2" /><trip id="242" depart="145" from="55083473#1.4.32" to="55083473#2" /><trip id="243" depart="145" from="830650862" to="55083473#2" /><trip id="244" depart="145" from="29496808#0" to="29496808#2.341" /><trip id="245" depart="146" from="55083473#1.4.32" to="29496808#2.341" /><trip id="246" depart="147" from="55083473#1.4.32" to="55083473#2" /><trip id="247" depart="147" from="219823957" to="55083473#2" /><trip id="248" depart="147" from="29496808#0" to="29496808#2.341" /><trip id="249" depart="148" from="55083473#1.4.32" to="55083473#2" /><trip id="250" depart="148" from="29496808#0" to="29496808#2.341" /><trip id="251" depart="149" from="830650862" to="830650861#5" /><trip id="252" depart="149" from="55083473#1.4.32" to="185495393" /><trip id="253" depart="150" from="830650862" to="830653153" /><trip id="254" depart="150" from="55083473#1.4.32" to="830650861#5" /><trip id="255" depart="150" from="219823957" to="830650861#5" /><trip id="256" depart="151" from="55083473#1.4.32" to="55083473#2" /><trip id="257" depart="151" from="55083473#1.4.32" to="55083473#2" /><trip id="258" depart="152" from="29496808#0" to="29496808#2.341" /><trip id="259" depart="153" from="29496808#0" to="185495393" /><trip id="260" depart="155" from="219823957" to="185495393" /><trip id="261" depart="155" from="830650862" to="830650861#5" /><trip id="262" depart="156" from="55083473#1.4.32" to="55083473#2" /><trip id="263" depart="157" from="55083473#1.4.32" to="55083473#2" /><trip id="264" depart="158" from="55083473#1.4.32" to="55083473#2" /><trip id="265" depart="158" from="55083473#1.4.32" to="55083473#2" /><trip id="266" depart="158" from="219823957" to="830653153" /><trip id="267" depart="158" from="55083473#1.4.32" to="830653153" /><trip id="268" depart="158" from="830653154#7" to="830653153" /><trip id="269" depart="159" from="830653154#7" to="830653153" /><trip id="270" depart="159" from="55083473#1.4.32" to="55083473#2" /><trip id="271" depart="159" from="830650862" to="830650861#5" /><trip id="272" depart="160" from="55083473#1.4.32" to="55083473#2" /><trip id="273" depart="161" from="55083473#1.4.32" to="55083473#2" /><trip id="274" depart="161" from="29496808#0" to="29496808#2.341" /><trip id="275" depart="162" from="55083473#1.4.32" to="55083473#2" /><trip id="276" depart="163" from="29496808#0" to="29496808#2.341" /><trip id="277" depart="163" from="55083473#1.4.32" to="185495393" /><trip id="278" depart="164" from="55083473#1.4.32" to="830653153" /><trip id="279" depart="164" from="219823957" to="55083473#2" /><trip id="280" depart="165" from="830650862" to="830653153" /><trip id="281" depart="165" from="55083473#1.4.32" to="185495393" /><trip id="282" depart="165" from="830650862" to="830653153" /><trip id="283" depart="165" from="29496808#0" to="29496808#2.341" /><trip id="284" depart="166" from="29496808#0" to="29496808#2.341" /><trip id="285" depart="166" from="29496808#0" to="29496808#2.341" /><trip id="286" depart="167" from="830650862" to="830650861#5" /><trip id="287" depart="167" from="830653154#7" to="830653153" /><trip id="288" depart="167" from="55083473#1.4.32" to="833484978" /><trip id="289" depart="167" from="219823957" to="830650861#5" /><trip id="290" depart="168" from="55083473#1.4.32" to="830650861#5" /><trip id="291" depart="168" from="29496808#0" to="29496808#2.341" /><trip id="292" depart="168" from="55083473#1.4.32" to="55083473#2" /><trip id="293" depart="169" from="219823957" to="55083473#2" /><trip id="294" depart="169" from="830653154#7" to="833484978" /><trip id="295" depart="170" from="55083473#1.4.32" to="55083473#2" /><trip id="296" depart="171" from="29496808#0" to="29496808#2.341" /><trip id="297" depart="171" from="830653154#7" to="830650861#5" /><trip id="298" depart="171" from="55083473#1.4.32" to="55083473#2" /><trip id="299" depart="172" from="219823957" to="833484978" /><trip id="300" depart="173" from="29496808#0" to="29496808#2.341" /><trip id="301" depart="173" from="830653154#7" to="830650861#5" /><trip id="302" depart="173" from="833484977" to="830653153" /><trip id="303" depart="173" from="29496808#0" to="29496808#2.341" /><trip id="304" depart="174" from="55083473#1.4.32" to="55083473#2" /><trip id="305" depart="174" from="29496808#0" to="29496808#2.341" /><trip id="306" depart="175" from="830650862" to="55083473#2" /><trip id="307" depart="175" from="29496808#0" to="29496808#2.341" /><trip id="308" depart="175" from="29496808#0" to="29496808#2.341" /><trip id="309" depart="176" from="29496808#0" to="29496808#2.341" /><trip id="310" depart="176" from="55083473#1.4.32" to="55083473#2" /><trip id="311" depart="176" from="29496808#0" to="55083473#2" /><trip id="312" depart="177" from="29496808#0" to="29496808#2.341" /><trip id="313" depart="177" from="830650862" to="29496808#2.341" /><trip id="314" depart="178" from="55083473#1.4.32" to="833484978" /><trip id="315" depart="179" from="29496808#0" to="29496808#2.341" /><trip id="316" depart="179" from="55083473#1.4.32" to="830650861#5" /><trip id="317" depart="181" from="29496808#0" to="830650861#5" /><trip id="318" depart="181" from="830650862" to="830650861#5" /><trip id="319" depart="181" from="29496808#0" to="185495393" /><trip id="320" depart="182" from="830653154#7" to="830650861#5" /><trip id="321" depart="183" from="29496808#0" to="830650861#5" /><trip id="322" depart="183" from="29496808#0" to="29496808#2.341" /><trip id="323" depart="184" from="29496808#0" to="29496808#2.341" /><trip id="324" depart="184" from="29496808#0" to="29496808#2.341" /><trip id="325" depart="184" from="29496808#0" to="29496808#2.341" /><trip id="326" depart="184" from="55083473#1.4.32" to="55083473#2" /><trip id="327" depart="185" from="29496808#0" to="29496808#2.341" /><trip id="328" depart="187" from="55083473#1.4.32" to="55083473#2" /><trip id="329" depart="187" from="55083473#1.4.32" to="55083473#2" /><trip id="330" depart="189" from="55083473#1.4.32" to="830650861#5" /><trip id="331" depart="190" from="55083473#1.4.32" to="55083473#2" /><trip id="332" depart="194" from="830650862" to="830650861#5" /><trip id="333" depart="195" from="830650862" to="830650861#5" /><trip id="334" depart="196" from="55083473#1.4.32" to="55083473#2" /><trip id="335" depart="196" from="55083473#1.4.32" to="29496808#2.341" /><trip id="336" depart="197" from="55083473#1.4.32" to="830653153" /><trip id="337" depart="197" from="29496808#0" to="833484978" /><trip id="338" depart="197" from="29496808#0" to="29496808#2.341" /><trip id="339" depart="198" from="29496808#0" to="833484978" /><trip id="340" depart="201" from="219823957" to="830653153" /><trip id="341" depart="201" from="55083473#1.4.32" to="55083473#2" /><trip id="342" depart="201" from="55083473#1.4.32" to="55083473#2" /><trip id="343" depart="202" from="29496808#0" to="29496808#2.341" /><trip id="344" depart="203" from="55083473#1.4.32" to="55083473#2" /><trip id="345" depart="204" from="55083473#1.4.32" to="55083473#2" /><trip id="346" depart="206" from="55083473#1.4.32" to="55083473#2" /><trip id="347" depart="208" from="219823957" to="830650861#5" /><trip id="348" depart="209" from="55083473#1.4.32" to="55083473#2" /><trip id="349" depart="209" from="830650862" to="830650861#5" /><trip id="350" depart="210" from="830650862" to="830650861#5" /><trip id="351" depart="210" from="830653154#7" to="830653153" /><trip id="352" depart="211" from="830650862" to="830650861#5" /><trip id="353" depart="211" from="29496808#0" to="29496808#2.341" /><trip id="354" depart="212" from="55083473#1.4.32" to="55083473#2" /><trip id="355" depart="212" from="219823957" to="830650861#5" /><trip id="356" depart="213" from="55083473#1.4.32" to="55083473#2" /><trip id="357" depart="215" from="29496808#0" to="29496808#2.341" /><trip id="358" depart="215" from="219823957" to="185495393" /><trip id="359" depart="215" from="29496808#0" to="29496808#2.341" /><trip id="360" depart="220" from="219823957" to="185495393" /><trip id="361" depart="221" from="29496808#0" to="29496808#2.341" /><trip id="362" depart="221" from="29496808#0" to="29496808#2.341" /><trip id="363" depart="224" from="219823957" to="29496808#2.341" /><trip id="364" depart="224" from="29496808#0" to="833484978" /><trip id="365" depart="226" from="29496808#0" to="29496808#2.341" /><trip id="366" depart="226" from="219823957" to="830650861#5" /><trip id="367" depart="227" from="219823957" to="830653153" /><trip id="368" depart="227" from="55083473#1.4.32" to="55083473#2" /><trip id="369" depart="228" from="29496808#0" to="29496808#2.341" /><trip id="370" depart="229" from="55083473#1.4.32" to="185495393" /><trip id="371" depart="230" from="55083473#1.4.32" to="55083473#2" /><trip id="372" depart="231" from="830650862" to="830653153" /><trip id="373" depart="232" from="29496808#0" to="29496808#2.341" /><trip id="374" depart="235" from="55083473#1.4.32" to="55083473#2" /><trip id="375" depart="235" from="29496808#0" to="29496808#2.341" /><trip id="376" depart="235" from="830650862" to="830653153" /><trip id="377" depart="236" from="55083473#1.4.32" to="55083473#2" /><trip id="378" depart="236" from="55083473#1.4.32" to="55083473#2" /><trip id="379" depart="237" from="29496808#0" to="29496808#2.341" /><trip id="380" depart="237" from="29496808#0" to="29496808#2.341" /><trip id="381" depart="237" from="55083473#1.4.32" to="55083473#2" /><trip id="382" depart="237" from="29496808#0" to="29496808#2.341" /><trip id="383" depart="237" from="55083473#1.4.32" to="55083473#2" /><trip id="384" depart="238" from="55083473#1.4.32" to="55083473#2" /><trip id="385" depart="238" from="29496808#0" to="29496808#2.341" /><trip id="386" depart="239" from="29496808#0" to="55083473#2" /><trip id="387" depart="239" from="29496808#0" to="830650861#5" /><trip id="388" depart="239" from="830650862" to="830650861#5" /><trip id="389" depart="239" from="830650862" to="833484978" /><trip id="390" depart="239" from="55083473#1.4.32" to="55083473#2" /><trip id="391" depart="239" from="29496808#0" to="29496808#2.341" /><trip id="392" depart="239" from="55083473#1.4.32" to="55083473#2" /><trip id="393" depart="240" from="55083473#1.4.32" to="55083473#2" /><trip id="394" depart="240" from="29496808#0" to="29496808#2.341" /><trip id="395" depart="242" from="219823957" to="833484978" /><trip id="396" depart="243" from="29496808#0" to="29496808#2.341" /><trip id="397" depart="243" from="55083473#1.4.32" to="55083473#2" /><trip id="398" depart="243" from="29496808#0" to="29496808#2.341" /><trip id="399" depart="244" from="55083473#1.4.32" to="55083473#2" /><trip id="400" depart="244" from="830650862" to="830650861#5" /><trip id="401" depart="244" from="55083473#1.4.32" to="833484978" /><trip id="402" depart="245" from="29496808#0" to="29496808#2.341" /><trip id="403" depart="246" from="219823957" to="833484978" /><trip id="404" depart="246" from="219823957" to="185495393" /><trip id="405" depart="247" from="29496808#0" to="29496808#2.341" /><trip id="406" depart="248" from="55083473#1.4.32" to="55083473#2" /><trip id="407" depart="248" from="830650862" to="830650861#5" /><trip id="408" depart="248" from="29496808#0" to="29496808#2.341" /><trip id="409" depart="248" from="55083473#1.4.32" to="55083473#2" /><trip id="410" depart="248" from="830650862" to="830650861#5" /><trip id="411" depart="249" from="29496808#0" to="29496808#2.341" /><trip id="412" depart="249" from="830650862" to="830650861#5" /><trip id="413" depart="251" from="29496808#0" to="29496808#2.341" /><trip id="414" depart="251" from="219823957" to="29496808#2.341" /><trip id="415" depart="251" from="830650862" to="833484978" /><trip id="416" depart="252" from="55083473#1.4.32" to="55083473#2" /><trip id="417" depart="252" from="55083473#1.4.32" to="55083473#2" /><trip id="418" depart="252" from="29496808#0" to="55083473#2" /><trip id="419" depart="253" from="29496808#0" to="29496808#2.341" /><trip id="420" depart="253" from="55083473#1.4.32" to="55083473#2" /><trip id="421" depart="254" from="55083473#1.4.32" to="55083473#2" /><trip id="422" depart="254" from="55083473#1.4.32" to="55083473#2" /><trip id="423" depart="255" from="29496808#0" to="29496808#2.341" /><trip id="424" depart="255" from="55083473#1.4.32" to="55083473#2" /><trip id="425" depart="256" from="55083473#1.4.32" to="55083473#2" /><trip id="426" depart="257" from="55083473#1.4.32" to="55083473#2" /><trip id="427" depart="257" from="29496808#0" to="29496808#2.341" /><trip id="428" depart="257" from="55083473#1.4.32" to="55083473#2" /><trip id="429" depart="258" from="29496808#0" to="29496808#2.341" /><trip id="430" depart="260" from="55083473#1.4.32" to="55083473#2" /><trip id="431" depart="261" from="55083473#1.4.32" to="833484978" /><trip id="432" depart="262" from="55083473#1.4.32" to="833484978" /><trip id="433" depart="262" from="29496808#0" to="29496808#2.341" /><trip id="434" depart="263" from="29496808#0" to="29496808#2.341" /><trip id="435" depart="263" from="219823957" to="830650861#5" /><trip id="436" depart="264" from="55083473#1.4.32" to="55083473#2" /><trip id="437" depart="264" from="219823957" to="29496808#2.341" /><trip id="438" depart="264" from="830650862" to="833484978" /><trip id="439" depart="265" from="55083473#1.4.32" to="55083473#2" /><trip id="440" depart="265" from="29496808#0" to="185495393" /><trip id="441" depart="265" from="55083473#1.4.32" to="55083473#2" /><trip id="442" depart="266" from="55083473#1.4.32" to="55083473#2" /><trip id="443" depart="266" from="830650862" to="830650861#5" /><trip id="444" depart="267" from="55083473#1.4.32" to="55083473#2" /><trip id="445" depart="267" from="830650862" to="830653153" /><trip id="446" depart="267" from="29496808#0" to="29496808#2.341" /><trip id="447" depart="269" from="29496808#0" to="29496808#2.341" /><trip id="448" depart="269" from="55083473#1.4.32" to="55083473#2" /><trip id="449" depart="269" from="29496808#0" to="29496808#2.341" /><trip id="450" depart="269" from="830650862" to="830650861#5" /><trip id="451" depart="269" from=