<?xml version="1.0" encoding="UTF-8"?>

<!-- generated on 2023-10-27 10:08:37 by Eclipse SUMO netedit Version 1.18.0
<configuration xmlns:xsi="http://www.w3.org/2001/XMLSchema-instance" xsi:noNamespaceSchemaLocation="http://sumo.dlr.de/xsd/neteditConfiguration.xsd">

    <input>
        <sumo-net-file value="/Users/christtzm/tzm/PyWork/trans_llm/TrafficGPT/real-world-simulation-withTLS/gen_net/test2.net.xml"/>
    </input>

    <output>
        <output-file value="/Users/christtzm/tzm/PyWork/trans_llm/TrafficGPT/real-world-simulation-withTLS/gen_net/test2.net.xml"/>
    </output>

    <processing>
        <geometry.min-radius.fix.railways value="false"/>
        <geometry.max-grade.fix value="false"/>
        <offset.disable-normalization value="true"/>
        <lefthand value="0"/>
    </processing>

    <junctions>
        <no-turnarounds value="true"/>
        <junctions.corner-detail value="5"/>
        <junctions.limit-turn-speed value="5.50"/>
        <rectangular-lane-cut value="0"/>
    </junctions>

    <pedestrian>
        <walkingareas value="0"/>
    </pedestrian>

</configuration>
-->

<net version="1.16" junctionCornerDetail="5" limitTurnSpeed="5.50" xmlns:xsi="http://www.w3.org/2001/XMLSchema-instance" xsi:noNamespaceSchemaLocation="http://sumo.dlr.de/xsd/net_file.xsd">

    <location netOffset="-766115.41,-2534569.14" convBoundary="0.00,12172.27,9834.73,25896.36" origBoundary="113.543701,22.882896,113.860167,23.131650" projParameter="+proj=utm +zone=49 +ellps=WGS84 +datum=WGS84 +units=m +no_defs"/>

    <type id="highway.motorway" priority="14" numLanes="2" speed="39.44" allow="private emergency authority army vip passenger hov taxi bus coach delivery truck trailer motorcycle evehicle custom1 custom2" oneway="1"/>
    <type id="highway.motorway_link" priority="9" numLanes="1" speed="22.22" allow="private emergency authority army vip passenger hov taxi bus coach delivery truck trailer motorcycle evehicle custom1 custom2" oneway="1"/>
    <type id="highway.primary" priority="12" numLanes="2" speed="27.78" disallow="tram rail_urban rail rail_electric rail_fast ship" oneway="0"/>
    <type id="highway.primary_link" priority="7" numLanes="1" speed="22.22" disallow="tram rail_urban rail rail_electric rail_fast ship" oneway="0"/>
    <type id="highway.residential" priority="3" numLanes="1" speed="13.89" disallow="tram rail_urban rail rail_electric rail_fast ship" oneway="0"/>
    <type id="highway.secondary" priority="11" numLanes="1" speed="27.78" disallow="tram rail_urban rail rail_electric rail_fast ship" oneway="0"/>
    <type id="highway.tertiary" priority="10" numLanes="1" speed="22.22" disallow="tram rail_urban rail rail_electric rail_fast ship" oneway="0"/>
    <type id="highway.tertiary_link" priority="5" numLanes="1" speed="22.22" disallow="tram rail_urban rail rail_electric rail_fast ship" oneway="0"/>
    <type id="highway.unclassified" priority="4" numLanes="1" speed="13.89" disallow="tram rail_urban rail rail_electric rail_fast ship" oneway="0"/>

    <edge id=":10050975657_0" function="internal">
        <lane id=":10050975657_0_0" index="0" allow="private emergency authority army vip passenger hov taxi bus coach delivery truck trailer motorcycle evehicle custom1 custom2" speed="22.22" length="7.92" shape="8109.95,13165.61 8108.48,13167.38 8107.80,13168.84 8107.17,13170.35 8105.83,13172.24"/>
        <lane id=":10050975657_0_1" index="1" allow="private emergency authority army vip passenger hov taxi bus coach delivery truck trailer motorcycle evehicle custom1 custom2" speed="22.22" length="7.92" shape="8109.95,13165.61 8108.10,13167.06 8106.61,13167.78 8105.15,13168.55 8103.43,13170.11"/>
    </edge>
    <edge id=":10050975676_0" function="internal">
        <lane id=":10050975676_0_0" index="0" disallow="tram rail_urban rail rail_electric rail_fast ship" speed="25.00" length="13.93" shape="8322.75,12820.56 8325.97,12817.56 8328.16,12815.12 8329.95,12812.79 8331.95,12810.14"/>
    </edge>
    <edge id=":10050975676_1" function="internal">
        <lane id=":10050975676_1_0" index="0" disallow="tram rail_urban rail rail_electric rail_fast ship" speed="27.78" length="14.14" shape="8322.75,12820.56 8326.08,12817.99 8328.63,12816.63 8331.37,12815.55 8335.25,12813.80"/>
        <lane id=":10050975676_1_1" index="1" disallow="tram rail_urban rail rail_electric rail_fast ship" speed="27.78" length="14.14" shape="8324.85,12822.98 8328.11,12820.47 8330.63,12819.17 8333.32,12818.14 8337.12,12816.44"/>
    </edge>
    <edge id=":10050975685_0" function="internal">
        <lane id=":10050975685_0_0" index="0" allow="private emergency authority army vip passenger hov taxi bus coach delivery truck trailer motorcycle evehicle custom1 custom2" speed="22.22" length="0.30" shape="8229.17,13021.16 8228.95,13021.38"/>
    </edge>
    <edge id=":10050975738_0" function="internal">
        <lane id=":10050975738_0_0" index="0" disallow="tram rail_urban rail rail_electric rail_fast ship" speed="3.65" length="4.67" shape="8529.70,13720.50 8528.83,13721.65 8528.01,13722.01 8527.24,13721.57 8526.50,13720.32"/>
    </edge>
    <edge id=":10050975743_0" function="internal">
        <lane id=":10050975743_0_0" index="0" disallow="tram rail_urban rail rail_electric rail_fast ship" speed="27.78" length="38.22" shape="8681.37,13536.30 8673.72,13532.07 8664.20,13528.10 8654.39,13524.77 8645.89,13522.50"/>
        <lane id=":10050975743_0_1" index="1" disallow="tram rail_urban rail rail_electric rail_fast ship" speed="27.78" length="38.85" shape="8683.18,13533.66 8675.44,13529.37 8665.73,13525.28 8655.74,13521.83 8647.15,13519.50"/>
    </edge>
    <edge id=":10050975743_2" function="internal">
        <lane id=":10050975743_2_0" index="0" disallow="tram rail_urban rail rail_electric rail_fast ship" speed="25.00" length="38.71" shape="8683.18,13533.66 8674.97,13528.79 8664.63,13523.40 8655.02,13518.60 8649.00,13515.53"/>
    </edge>
    <edge id=":10050975776_0" function="internal">
        <lane id=":10050975776_0_0" index="0" disallow="tram rail_urban rail rail_electric rail_fast ship" speed="25.00" length="9.57" shape="8738.69,13559.42 8740.90,13560.93 8742.86,13561.20 8744.96,13561.28 8747.61,13562.22"/>
    </edge>
    <edge id=":10050975849_0" function="internal">
        <lane id=":10050975849_0_0" index="0" disallow="tram rail_urban rail rail_electric rail_fast ship" speed="27.78" length="9.40" shape="8085.41,12884.63 8078.66,12878.08"/>
        <lane id=":10050975849_0_1" index="1" disallow="tram rail_urban rail rail_electric rail_fast ship" speed="27.78" length="9.40" shape="8087.64,12882.34 8080.89,12875.78"/>
    </edge>
    <edge id=":10050975849_2" function="internal">
        <lane id=":10050975849_2_0" index="0" disallow="tram rail_urban rail rail_electric rail_fast ship" speed="5.84" length="7.28" shape="8087.64,12882.34 8085.75,12880.30 8084.64,12878.61 8084.32,12877.26 8084.78,12876.27"/>
    </edge>
    <edge id=":10050975849_3" function="internal">
        <lane id=":10050975849_3_0" index="0" disallow="tram rail_urban rail rail_electric rail_fast ship" speed="5.96" length="7.21" shape="8087.00,12878.58 8086.01,12878.99 8084.66,12878.66 8082.96,12877.59 8080.89,12875.78"/>
    </edge>
    <edge id=":10050975849_4" function="internal">
        <lane id=":10050975849_4_0" index="0" disallow="tram rail_urban rail rail_electric rail_fast ship" speed="3.65" length="4.67" shape="8087.00,12878.58 8085.58,12878.84 8084.73,12878.53 8084.47,12877.68 8084.78,12876.27"/>
    </edge>
    <edge id=":10050975850_0" function="internal">
        <lane id=":10050975850_0_0" index="0" disallow="tram rail_urban rail rail_electric rail_fast ship" speed="27.78" length="9.40" shape="8035.04,12819.91 8041.77,12826.47"/>
        <lane id=":10050975850_0_1" index="1" disallow="tram rail_urban rail rail_electric rail_fast ship" speed="27.78" length="9.40" shape="8032.81,12822.20 8039.54,12828.77"/>
    </edge>
    <edge id=":10050975850_2" function="internal">
        <lane id=":10050975850_2_0" index="0" disallow="tram rail_urban rail rail_electric rail_fast ship" speed="5.90" length="7.27" shape="8032.81,12822.20 8034.68,12824.24 8035.78,12825.93 8036.11,12827.28 8035.67,12828.28"/>
    </edge>
    <edge id=":10050975850_3" function="internal">
        <lane id=":10050975850_3_0" index="0" disallow="tram rail_urban rail rail_electric rail_fast ship" speed="5.92" length="7.26" shape="8033.39,12826.04 8034.39,12825.59 8035.75,12825.89 8037.46,12826.95 8039.54,12828.77"/>
    </edge>
    <edge id=":10050975850_4" function="internal">
        <lane id=":10050975850_4_0" index="0" disallow="tram rail_urban rail rail_electric rail_fast ship" speed="3.65" length="4.67" shape="8033.39,12826.04 8034.80,12825.75 8035.65,12826.02 8035.94,12826.87 8035.67,12828.28"/>
    </edge>
    <edge id=":10296799885_0" function="internal">
        <lane id=":10296799885_0_0" index="0" disallow="tram rail_urban rail rail_electric rail_fast ship" speed="27.78" length="0.10" shape="7863.83,12653.06 7863.83,12653.06"/>
        <lane id=":10296799885_0_1" index="1" disallow="tram rail_urban rail rail_electric rail_fast ship" speed="27.78" length="0.10" shape="7861.59,12655.36 7861.59,12655.36"/>
    </edge>
    <edge id=":10296799886_0" function="internal">
        <lane id=":10296799886_0_0" index="0" disallow="tram rail_urban rail rail_electric rail_fast ship" speed="22.22" length="9.39" shape="8082.72,12435.25 8075.94,12428.75"/>
    </edge>
    <edge id=":10296799886_1" function="internal">
        <lane id=":10296799886_1_0" index="0" disallow="tram rail_urban rail rail_electric rail_fast ship" speed="6.03" length="7.66" shape="8082.72,12435.25 8080.85,12433.21 8079.82,12431.45 8079.61,12429.96 8080.23,12428.76"/>
    </edge>
    <edge id=":10296799886_2" function="internal">
        <lane id=":10296799886_2_0" index="0" disallow="tram rail_urban rail rail_electric rail_fast ship" speed="6.06" length="0.88" shape="8082.52,12431.00 8081.75,12431.42"/>
    </edge>
    <edge id=":10296799886_3" function="internal">
        <lane id=":10296799886_3_0" index="0" disallow="tram rail_urban rail rail_electric rail_fast ship" speed="3.65" length="0.71" shape="8082.52,12431.00 8081.83,12431.15"/>
    </edge>
    <edge id=":10296799886_4" function="internal">
        <lane id=":10296799886_4_0" index="0" disallow="tram rail_urban rail rail_electric rail_fast ship" speed="6.06" length="6.77" shape="8081.75,12431.42 8081.34,12431.65 8079.85,12431.49 8078.05,12430.52 8075.94,12428.75"/>
    </edge>
    <edge id=":10296799886_5" function="internal">
        <lane id=":10296799886_5_0" index="0" disallow="tram rail_urban rail rail_electric rail_fast ship" speed="3.65" length="3.96" shape="8081.83,12431.15 8081.11,12431.30 8080.26,12431.03 8079.97,12430.18 8080.23,12428.76"/>
    </edge>
    <edge id=":10296799887_0" function="internal">
        <lane id=":10296799887_0_0" index="0" disallow="tram rail_urban rail rail_electric rail_fast ship" speed="27.78" length="0.10" shape="7779.98,12571.34 7779.98,12571.34"/>
        <lane id=":10296799887_0_1" index="1" disallow="tram rail_urban rail rail_electric rail_fast ship" speed="27.78" length="0.10" shape="7777.74,12573.64 7777.74,12573.64"/>
    </edge>
    <edge id=":10296799888_0" function="internal">
        <lane id=":10296799888_0_0" index="0" disallow="tram rail_urban rail rail_electric rail_fast ship" speed="22.22" length="0.30" shape="7994.29,12350.58 7994.07,12350.38"/>
    </edge>
    <edge id=":10296799889_0" function="internal">
        <lane id=":10296799889_0_0" index="0" disallow="tram rail_urban rail rail_electric rail_fast ship" speed="27.78" length="0.10" shape="7957.08,12743.94 7957.08,12743.94"/>
        <lane id=":10296799889_0_1" index="1" disallow="tram rail_urban rail rail_electric rail_fast ship" speed="27.78" length="0.10" shape="7954.84,12746.24 7954.84,12746.24"/>
    </edge>
    <edge id=":10296799890_0" function="internal">
        <lane id=":10296799890_0_0" index="0" disallow="tram rail_urban rail rail_electric rail_fast ship" speed="22.22" length="9.40" shape="8172.44,12512.79 8179.21,12519.31"/>
    </edge>
    <edge id=":10296799890_1" function="internal">
        <lane id=":10296799890_1_0" index="0" disallow="tram rail_urban rail rail_electric rail_fast ship" speed="6.08" length="7.76" shape="8172.44,12512.79 8174.30,12514.83 8175.32,12516.62 8175.50,12518.13 8174.84,12519.39"/>
    </edge>
    <edge id=":10296799890_2" function="internal">
        <lane id=":10296799890_2_0" index="0" disallow="tram rail_urban rail rail_electric rail_fast ship" speed="6.05" length="0.93" shape="8172.55,12517.15 8173.36,12516.69"/>
    </edge>
    <edge id=":10296799890_3" function="internal">
        <lane id=":10296799890_3_0" index="0" disallow="tram rail_urban rail rail_electric rail_fast ship" speed="3.65" length="0.83" shape="8172.55,12517.15 8173.37,12516.98"/>
    </edge>
    <edge id=":10296799890_4" function="internal">
        <lane id=":10296799890_4_0" index="0" disallow="tram rail_urban rail rail_electric rail_fast ship" speed="6.05" length="6.82" shape="8173.36,12516.69 8173.79,12516.44 8175.31,12516.56 8177.11,12517.51 8179.21,12519.31"/>
    </edge>
    <edge id=":10296799890_5" function="internal">
        <lane id=":10296799890_5_0" index="0" disallow="tram rail_urban rail rail_electric rail_fast ship" speed="3.65" length="3.84" shape="8173.37,12516.98 8173.96,12516.85 8174.82,12517.13 8175.11,12517.97 8174.84,12519.39"/>
    </edge>
    <edge id=":10296799891_0" function="internal">
        <lane id=":10296799891_0_0" index="0" disallow="tram rail_urban rail rail_electric rail_fast ship" speed="22.22" length="9.40" shape="8174.86,12523.85 8168.10,12517.31"/>
    </edge>
    <edge id=":10296799891_1" function="internal">
        <lane id=":10296799891_1_0" index="0" disallow="tram rail_urban rail rail_electric rail_fast ship" speed="6.11" length="7.74" shape="8174.86,12523.85 8173.03,12521.77 8172.03,12519.98 8171.84,12518.46 8172.48,12517.22"/>
    </edge>
    <edge id=":10296799891_2" function="internal">
        <lane id=":10296799891_2_0" index="0" disallow="tram rail_urban rail rail_electric rail_fast ship" speed="6.08" length="0.91" shape="8174.77,12519.46 8173.98,12519.91"/>
    </edge>
    <edge id=":10296799891_3" function="internal">
        <lane id=":10296799891_3_0" index="0" disallow="tram rail_urban rail rail_electric rail_fast ship" speed="3.65" length="0.82" shape="8174.77,12519.46 8173.97,12519.63"/>
    </edge>
    <edge id=":10296799891_4" function="internal">
        <lane id=":10296799891_4_0" index="0" disallow="tram rail_urban rail rail_electric rail_fast ship" speed="6.08" length="6.83" shape="8173.98,12519.91 8173.56,12520.16 8172.04,12520.03 8170.22,12519.08 8168.10,12517.31"/>
    </edge>
    <edge id=":10296799891_5" function="internal">
        <lane id=":10296799891_5_0" index="0" disallow="tram rail_urban rail rail_electric rail_fast ship" speed="3.65" length="3.86" shape="8173.97,12519.63 8173.36,12519.76 8172.51,12519.49 8172.22,12518.64 8172.48,12517.22"/>
    </edge>
    <edge id=":10296828709_0" function="internal">
        <lane id=":10296828709_0_0" index="0" disallow="tram rail_urban rail rail_electric rail_fast ship" speed="22.22" length="9.40" shape="8271.00,12610.05 8277.68,12616.66"/>
    </edge>
    <edge id=":10296828709_1" function="internal">
        <lane id=":10296828709_1_0" index="0" disallow="tram rail_urban rail rail_electric rail_fast ship" speed="6.04" length="7.73" shape="8271.00,12610.05 8272.83,12612.14 8273.82,12613.93 8273.98,12615.43 8273.29,12616.65"/>
    </edge>
    <edge id=":10296828709_2" function="internal">
        <lane id=":10296828709_2_0" index="0" disallow="tram rail_urban rail rail_electric rail_fast ship" speed="6.11" length="0.92" shape="8271.06,12614.36 8271.88,12613.93"/>
    </edge>
    <edge id=":10296828709_3" function="internal">
        <lane id=":10296828709_3_0" index="0" disallow="tram rail_urban rail rail_electric rail_fast ship" speed="3.65" length="0.78" shape="8271.06,12614.36 8271.83,12614.22"/>
    </edge>
    <edge id=":10296828709_4" function="internal">
        <lane id=":10296828709_4_0" index="0" disallow="tram rail_urban rail rail_electric rail_fast ship" speed="6.11" length="6.79" shape="8271.88,12613.93 8272.28,12613.71 8273.80,12613.88 8275.60,12614.87 8277.68,12616.66"/>
    </edge>
    <edge id=":10296828709_5" function="internal">
        <lane id=":10296828709_5_0" index="0" disallow="tram rail_urban rail rail_electric rail_fast ship" speed="3.65" length="3.90" shape="8271.83,12614.22 8272.48,12614.09 8273.32,12614.39 8273.59,12615.24 8273.29,12616.65"/>
    </edge>
    <edge id=":10296828710_0" function="internal">
        <lane id=":10296828710_0_0" index="0" disallow="tram rail_urban rail rail_electric rail_fast ship" speed="22.22" length="9.40" shape="8273.21,12621.10 8266.53,12614.49"/>
    </edge>
    <edge id=":10296828710_1" function="internal">
        <lane id=":10296828710_1_0" index="0" disallow="tram rail_urban rail rail_electric rail_fast ship" speed="6.04" length="7.73" shape="8273.21,12621.10 8271.38,12619.01 8270.39,12617.22 8270.23,12615.72 8270.92,12614.50"/>
    </edge>
    <edge id=":10296828710_2" function="internal">
        <lane id=":10296828710_2_0" index="0" disallow="tram rail_urban rail rail_electric rail_fast ship" speed="6.10" length="0.92" shape="8273.15,12616.79 8272.33,12617.22"/>
    </edge>
    <edge id=":10296828710_3" function="internal">
        <lane id=":10296828710_3_0" index="0" disallow="tram rail_urban rail rail_electric rail_fast ship" speed="3.65" length="0.78" shape="8273.15,12616.79 8272.38,12616.93"/>
    </edge>
    <edge id=":10296828710_4" function="internal">
        <lane id=":10296828710_4_0" index="0" disallow="tram rail_urban rail rail_electric rail_fast ship" speed="6.10" length="6.79" shape="8272.33,12617.22 8271.93,12617.44 8270.41,12617.27 8268.62,12616.28 8266.53,12614.49"/>
    </edge>
    <edge id=":10296828710_5" function="internal">
        <lane id=":10296828710_5_0" index="0" disallow="tram rail_urban rail rail_electric rail_fast ship" speed="3.65" length="3.89" shape="8272.38,12616.93 8271.73,12617.06 8270.89,12616.76 8270.62,12615.91 8270.92,12614.50"/>
    </edge>
    <edge id=":10296828711_0" function="internal">
        <lane id=":10296828711_0_0" index="0" disallow="tram rail_urban rail rail_electric rail_fast ship" speed="27.78" length="0.10" shape="7830.67,12637.04 7830.67,12637.04"/>
        <lane id=":10296828711_0_1" index="1" disallow="tram rail_urban rail rail_electric rail_fast ship" speed="27.78" length="0.10" shape="7832.91,12634.74 7832.91,12634.74"/>
    </edge>
    <edge id=":10296828715_0" function="internal">
        <lane id=":10296828715_0_0" index="0" disallow="tram rail_urban rail rail_electric rail_fast ship" speed="27.78" length="0.10" shape="7771.56,12579.59 7771.56,12579.59"/>
        <lane id=":10296828715_0_1" index="1" disallow="tram rail_urban rail rail_electric rail_fast ship" speed="27.78" length="0.10" shape="7773.80,12577.29 7773.80,12577.29"/>
    </edge>
    <edge id=":10296828717_0" function="internal">
        <lane id=":10296828717_0_0" index="0" disallow="tram rail_urban rail rail_electric rail_fast ship" speed="27.78" length="0.10" shape="7889.49,12694.22 7889.49,12694.22"/>
        <lane id=":10296828717_0_1" index="1" disallow="tram rail_urban rail rail_electric rail_fast ship" speed="27.78" length="0.10" shape="7891.73,12691.92 7891.73,12691.92"/>
    </edge>
    <edge id=":10296828720_0" function="internal">
        <lane id=":10296828720_0_0" index="0" disallow="tram rail_urban rail rail_electric rail_fast ship" speed="27.78" length="0.10" shape="7947.86,12750.95 7947.86,12750.95"/>
        <lane id=":10296828720_0_1" index="1" disallow="tram rail_urban rail rail_electric rail_fast ship" speed="27.78" length="0.10" shape="7950.10,12748.65 7950.10,12748.65"/>
    </edge>
    <edge id=":10736837074_0" function="internal">
        <lane id=":10736837074_0_0" index="0" disallow="tram rail_urban rail rail_electric rail_fast ship" speed="27.78" length="9.08" shape="5032.31,16978.03 5026.64,16971.02"/>
        <lane id=":10736837074_0_1" index="1" disallow="tram rail_urban rail rail_electric rail_fast ship" speed="27.78" length="9.08" shape="5034.84,16976.08 5029.10,16968.97"/>
    </edge>
    <edge id=":10736837074_2" function="internal">
        <lane id=":10736837074_2_0" index="0" disallow="tram rail_urban rail rail_electric rail_fast ship" speed="4.70" length="5.76" shape="5033.37,16968.34 5032.51,16969.82 5031.51,16970.41 5030.37,16970.13 5029.10,16968.97"/>
    </edge>
    <edge id=":10736837080_0" function="internal">
        <lane id=":10736837080_0_0" index="0" disallow="tram rail_urban rail rail_electric rail_fast ship" speed="27.78" length="16.79" shape="5026.52,16970.87 5023.36,16967.10 5021.13,16964.57 5018.74,16962.21 5015.10,16958.91"/>
        <lane id=":10736837080_0_1" index="1" disallow="tram rail_urban rail rail_electric rail_fast ship" speed="27.78" length="16.79" shape="5028.97,16968.81 5025.73,16964.94 5023.43,16962.34 5020.97,16959.91 5017.22,16956.52"/>
    </edge>
    <edge id=":10736837080_2" function="internal">
        <lane id=":10736837080_2_0" index="0" disallow="tram rail_urban rail rail_electric rail_fast ship" speed="5.54" length="8.96" shape="5028.97,16968.81 5026.95,16966.02 5026.17,16963.93 5026.63,16962.55 5028.33,16961.88"/>
        <lane id=":10736837080_2_1" index="1" disallow="tram rail_urban rail rail_electric rail_fast ship" speed="4.34" length="4.90" shape="5028.97,16968.81 5027.89,16967.30 5027.49,16966.17 5027.78,16965.42 5028.76,16965.05"/>
    </edge>
    <edge id=":10736855225_0" function="internal">
        <lane id=":10736855225_0_0" index="0" disallow="tram rail_urban rail rail_electric rail_fast ship" speed="27.78" length="0.10" shape="5168.40,17112.27 5168.40,17112.27"/>
        <lane id=":10736855225_0_1" index="1" disallow="tram rail_urban rail rail_electric rail_fast ship" speed="27.78" length="0.10" shape="5170.62,17109.97 5170.62,17109.97"/>
    </edge>
    <edge id=":10736855332_0" function="internal">
        <lane id=":10736855332_0_0" index="0" disallow="tram rail_urban rail rail_electric rail_fast ship" speed="27.78" length="11.10" shape="6515.50,17996.35 6524.22,18003.22"/>
        <lane id=":10736855332_0_1" index="1" disallow="tram rail_urban rail rail_electric rail_fast ship" speed="27.78" length="11.10" shape="6513.52,17998.87 6522.24,18005.73"/>
    </edge>
    <edge id=":10736855332_2" function="internal">
        <lane id=":10736855332_2_0" index="0" disallow="tram rail_urban rail rail_electric rail_fast ship" speed="5.72" length="10.13" shape="6513.52,17998.87 6516.15,18001.36 6517.10,18003.36 6516.38,18004.89 6513.99,18005.93"/>
    </edge>
    <edge id=":10736855332_3" function="internal">
        <lane id=":10736855332_3_0" index="0" disallow="tram rail_urban rail rail_electric rail_fast ship" speed="9.27" length="9.61" shape="6513.42,18002.77 6515.41,18002.60 6517.55,18003.04 6519.82,18004.08 6522.24,18005.73"/>
    </edge>
    <edge id=":10736855332_4" function="internal">
        <lane id=":10736855332_4_0" index="0" disallow="tram rail_urban rail rail_electric rail_fast ship" speed="3.65" length="4.68" shape="6513.42,18002.77 6514.75,18003.35 6515.28,18004.07 6515.03,18004.93 6513.99,18005.93"/>
    </edge>
    <edge id=":10736855333_0" function="internal">
        <lane id=":10736855333_0_0" index="0" disallow="tram rail_urban rail rail_electric rail_fast ship" speed="27.78" length="11.10" shape="6511.31,18012.50 6502.59,18005.64"/>
        <lane id=":10736855333_0_1" index="1" disallow="tram rail_urban rail rail_electric rail_fast ship" speed="27.78" length="11.10" shape="6513.29,18009.99 6504.57,18003.12"/>
    </edge>
    <edge id=":10736855333_2" function="internal">
        <lane id=":10736855333_2_0" index="0" disallow="tram rail_urban rail rail_electric rail_fast ship" speed="5.78" length="10.38" shape="6513.29,18009.99 6510.69,18007.49 6509.81,18005.47 6510.66,18003.91 6513.23,18002.82"/>
    </edge>
    <edge id=":10736855333_3" function="internal">
        <lane id=":10736855333_3_0" index="0" disallow="tram rail_urban rail rail_electric rail_fast ship" speed="9.44" length="9.99" shape="6513.80,18005.98 6511.63,18006.20 6509.36,18005.79 6507.01,18004.77 6504.57,18003.12"/>
    </edge>
    <edge id=":10736855333_4" function="internal">
        <lane id=":10736855333_4_0" index="0" disallow="tram rail_urban rail rail_electric rail_fast ship" speed="3.65" length="4.68" shape="6513.80,18005.98 6512.47,18005.40 6511.93,18004.69 6512.19,18003.83 6513.23,18002.82"/>
    </edge>
    <edge id=":10736855338_0" function="internal">
        <lane id=":10736855338_0_0" index="0" disallow="tram rail_urban rail rail_electric rail_fast ship" speed="27.78" length="9.98" shape="6431.13,17954.80 6428.66,17953.03 6427.03,17951.74 6425.50,17950.33 6423.32,17948.22"/>
        <lane id=":10736855338_0_1" index="1" disallow="tram rail_urban rail rail_electric rail_fast ship" speed="27.78" length="9.98" shape="6432.97,17952.19 6430.63,17950.50 6429.08,17949.27 6427.62,17947.93 6425.55,17945.92"/>
    </edge>
    <edge id=":10736855338_2" function="internal">
        <lane id=":10736855338_2_0" index="0" disallow="tram rail_urban rail rail_electric rail_fast ship" speed="6.40" length="8.28" shape="6432.97,17952.19 6430.88,17950.42 6429.67,17948.69 6429.34,17947.02 6429.89,17945.38"/>
    </edge>
    <edge id=":10736855338_3" function="internal">
        <lane id=":10736855338_3_0" index="0" disallow="tram rail_urban rail rail_electric rail_fast ship" speed="5.89" length="8.42" shape="6432.61,17947.07 6431.34,17948.33 6429.74,17948.57 6427.81,17947.76 6425.55,17945.92"/>
    </edge>
    <edge id=":10736855338_4" function="internal">
        <lane id=":10736855338_4_0" index="0" disallow="tram rail_urban rail rail_electric rail_fast ship" speed="3.65" length="4.67" shape="6432.61,17947.07 6431.30,17947.67 6430.41,17947.59 6429.94,17946.83 6429.89,17945.38"/>
    </edge>
    <edge id=":10736855339_0" function="internal">
        <lane id=":10736855339_0_0" index="0" disallow="tram rail_urban rail rail_electric rail_fast ship" speed="27.78" length="9.40" shape="6433.11,17935.11 6440.64,17940.70"/>
        <lane id=":10736855339_0_1" index="1" disallow="tram rail_urban rail rail_electric rail_fast ship" speed="27.78" length="9.40" shape="6431.19,17937.67 6438.74,17943.28"/>
    </edge>
    <edge id=":10736855339_2" function="internal">
        <lane id=":10736855339_2_0" index="0" disallow="tram rail_urban rail rail_electric rail_fast ship" speed="6.33" length="7.90" shape="6431.19,17937.67 6433.25,17939.46 6434.47,17941.13 6434.87,17942.68 6434.44,17944.11"/>
    </edge>
    <edge id=":10736855339_3" function="internal">
        <lane id=":10736855339_3_0" index="0" disallow="tram rail_urban rail rail_electric rail_fast ship" speed="6.00" length="7.99" shape="6431.72,17942.43 6432.84,17941.37 6434.39,17941.15 6436.36,17941.79 6438.74,17943.28"/>
    </edge>
    <edge id=":10736855339_4" function="internal">
        <lane id=":10736855339_4_0" index="0" disallow="tram rail_urban rail rail_electric rail_fast ship" speed="3.65" length="4.67" shape="6431.72,17942.43 6433.03,17941.83 6433.92,17941.91 6434.39,17942.67 6434.44,17944.11"/>
    </edge>
    <edge id=":10736855352_0" function="internal">
        <lane id=":10736855352_0_0" index="0" disallow="tram rail_urban rail rail_electric rail_fast ship" speed="27.78" length="0.30" shape="5824.02,17575.28 5823.76,17575.12"/>
        <lane id=":10736855352_0_1" index="1" disallow="tram rail_urban rail rail_electric rail_fast ship" speed="27.78" length="0.30" shape="5825.70,17572.56 5825.44,17572.40"/>
    </edge>
    <edge id=":10736855357_0" function="internal">
        <lane id=":10736855357_0_0" index="0" disallow="tram rail_urban rail rail_electric rail_fast ship" speed="27.78" length="0.28" shape="5888.73,17615.33 5888.52,17615.20"/>
        <lane id=":10736855357_0_1" index="1" disallow="tram rail_urban rail rail_electric rail_fast ship" speed="27.78" length="0.28" shape="5890.47,17612.64 5890.20,17612.48"/>
    </edge>
    <edge id=":10768795173_0" function="internal">
        <lane id=":10768795173_0_0" index="0" disallow="tram rail_urban rail rail_electric rail_fast ship" speed="12.01" length="9.74" shape="8899.51,13755.64 8899.11,13752.76 8898.73,13750.74 8897.85,13748.97 8895.96,13746.89"/>
    </edge>
    <edge id=":10768795173_1" function="internal">
        <lane id=":10768795173_1_0" index="0" disallow="tram rail_urban rail rail_electric rail_fast ship" speed="22.22" length="9.61" shape="8902.92,13753.52 8895.96,13746.89"/>
    </edge>
    <edge id=":10768795181_0" function="internal">
        <lane id=":10768795181_0_0" index="0" disallow="tram rail_urban rail rail_electric rail_fast ship" speed="12.56" length="10.29" shape="8933.80,13782.85 8931.51,13780.94 8929.63,13780.04 8927.50,13779.66 8924.46,13779.32"/>
    </edge>
    <edge id=":10768795181_1" function="internal">
        <lane id=":10768795181_1_0" index="0" disallow="tram rail_urban rail rail_electric rail_fast ship" speed="22.22" length="10.12" shape="8933.80,13782.85 8926.46,13775.89"/>
    </edge>
    <edge id=":10769216283_0" function="internal">
        <lane id=":10769216283_0_0" index="0" disallow="tram rail_urban rail rail_electric rail_fast ship" speed="22.22" length="13.75" shape="9361.47,14138.03 9371.43,14147.50"/>
    </edge>
    <edge id=":10769216283_1" function="internal">
        <lane id=":10769216283_1_0" index="0" disallow="tram rail_urban rail rail_electric rail_fast ship" speed="22.22" length="13.75" shape="9361.47,14138.03 9363.76,14140.69 9365.47,14143.53 9366.95,14146.53 9368.58,14149.72"/>
    </edge>
    <edge id=":10769216284_0" function="internal">