<?xml version="1.0" encoding="UTF-8"?>

<!-- generated on 2023-11-01 14:21:43 by Eclipse SUMO duarouter Version 1.18.0
<configuration xmlns:xsi="http://www.w3.org/2001/XMLSchema-instance" xsi:noNamespaceSchemaLocation="http://sumo.dlr.de/xsd/duarouterConfiguration.xsd">

    <input>
        <net-file value="test4_1.net.xml"/>
        <route-files value="test_trips.trips.xml"/>
    </input>

    <output>
        <output-file value="test4_1.rou.xml"/>
    </output>

</configuration>
-->

<routes xmlns:xsi="http://www.w3.org/2001/XMLSchema-instance" xsi:noNamespaceSchemaLocation="http://sumo.dlr.de/xsd/routes_file.xsd">
    <vehicle id="0" depart="50.00">
        <route edges="55083473#1.4.32 55083473#1.4.49 55083473#2"/>
    </vehicle>
    <vehicle id="1" depart="51.00">
        <route edges="55083473#1.4.32 55083473#1.4.49 55083473#2"/>
    </vehicle>
    <vehicle id="2" depart="51.00">
        <route edges="55083473#1.4.32 55083473#1.4.49 55083473#2"/>
    </vehicle>
    <vehicle id="3" depart="51.00">
        <route edges="55083473#1.4.32 55083473#1.4.49 55083473#2"/>
    </vehicle>
    <vehicle id="4" depart="52.00">
        <route edges="55083473#1.4.32 55083473#1.4.49 55083473#2"/>
    </vehicle>
    <vehicle id="5" depart="52.00">
        <route edges="55083473#1.4.32 55083473#1.4.49 55083473#2"/>
    </vehicle>
</routes>
