<?xml version="1.0" encoding="UTF-8"?>

<!-- generated on 2023-10-27 09:26:57 by Eclipse SUMO netedit Version 1.18.0
<configuration xmlns:xsi="http://www.w3.org/2001/XMLSchema-instance" xsi:noNamespaceSchemaLocation="http://sumo.dlr.de/xsd/neteditConfiguration.xsd">

    <input>
        <sumo-net-file value="/Users/christtzm/tzm/PyWork/trans_llm/TrafficGPT/real-world-simulation-withTLS/gen_net/test.net.xml"/>
    </input>

    <output>
        <output-file value="/Users/christtzm/tzm/PyWork/trans_llm/TrafficGPT/real-world-simulation-withTLS/gen_net/test.net.xml"/>
    </output>

    <processing>
        <geometry.min-radius.fix.railways value="false"/>
        <geometry.max-grade.fix value="false"/>
        <offset.disable-normalization value="true"/>
        <lefthand value="0"/>
    </processing>

    <junctions>
        <no-turnarounds value="true"/>
        <junctions.corner-detail value="5"/>
        <junctions.limit-turn-speed value="5.50"/>
        <rectangular-lane-cut value="0"/>
    </junctions>

    <pedestrian>
        <walkingareas value="0"/>
    </pedestrian>

</configuration>
-->

<net version="1.16" junctionCornerDetail="5" limitTurnSpeed="5.50" xmlns:xsi="http://www.w3.org/2001/XMLSchema-instance" xsi:noNamespaceSchemaLocation="http://sumo.dlr.de/xsd/net_file.xsd">

    <location netOffset="-766115.41,-2534569.14" convBoundary="0.00,12063.99,10230.79,25896.36" origBoundary="113.543701,22.882896,113.860167,23.131650" projParameter="+proj=utm +zone=49 +ellps=WGS84 +datum=WGS84 +units=m +no_defs"/>

    <type id="highway.footway" priority="1" numLanes="1" speed="2.78" allow="pedestrian" oneway="1" width="2.00"/>
    <type id="highway.motorway" priority="14" numLanes="2" speed="39.44" allow="private emergency authority army vip passenger hov taxi bus coach delivery truck trailer motorcycle evehicle custom1 custom2" oneway="1"/>
    <type id="highway.motorway_link" priority="9" numLanes="1" speed="22.22" allow="private emergency authority army vip passenger hov taxi bus coach delivery truck trailer motorcycle evehicle custom1 custom2" oneway="1"/>
    <type id="highway.path" priority="1" numLanes="1" speed="2.78" allow="pedestrian" oneway="0" width="2.00"/>
    <type id="highway.primary" priority="12" numLanes="2" speed="27.78" disallow="tram rail_urban rail rail_electric rail_fast ship" oneway="0"/>
    <type id="highway.primary_link" priority="7" numLanes="1" speed="22.22" disallow="tram rail_urban rail rail_electric rail_fast ship" oneway="0"/>
    <type id="highway.residential" priority="3" numLanes="1" speed="13.89" disallow="tram rail_urban rail rail_electric rail_fast ship" oneway="0"/>
    <type id="highway.secondary" priority="11" numLanes="1" speed="27.78" disallow="tram rail_urban rail rail_electric rail_fast ship" oneway="0"/>
    <type id="highway.secondary_link" priority="6" numLanes="1" speed="22.22" disallow="tram rail_urban rail rail_electric rail_fast ship" oneway="0"/>
    <type id="highway.service" priority="1" numLanes="1" speed="5.56" allow="pedestrian delivery" oneway="0"/>
    <type id="highway.tertiary" priority="10" numLanes="1" speed="22.22" disallow="tram rail_urban rail rail_electric rail_fast ship" oneway="0"/>
    <type id="highway.tertiary_link" priority="5" numLanes="1" speed="22.22" disallow="tram rail_urban rail rail_electric rail_fast ship" oneway="0"/>
    <type id="highway.unclassified" priority="4" numLanes="1" speed="13.89" disallow="tram rail_urban rail rail_electric rail_fast ship" oneway="0"/>

    <edge id=":10050420042_0" function="internal">
        <lane id=":10050420042_0_0" index="0" disallow="tram rail_urban rail rail_electric rail_fast ship" speed="27.78" length="0.30" shape="6384.97,12958.82 6384.71,12958.66"/>
    </edge>
    <edge id=":10050420043_0" function="internal">
        <lane id=":10050420043_0_0" index="0" disallow="tram rail_urban rail rail_electric rail_fast ship" speed="25.00" length="18.28" shape="6496.16,13021.23 6493.91,13018.26 6491.52,13015.09 6488.29,13011.74 6483.53,13008.22"/>
    </edge>
    <edge id=":10050420043_1" function="internal">
        <lane id=":10050420043_1_0" index="0" disallow="tram rail_urban rail rail_electric rail_fast ship" speed="27.78" length="18.30" shape="6499.05,13017.90 6483.53,13008.22"/>
        <lane id=":10050420043_1_1" index="1" disallow="tram rail_urban rail rail_electric rail_fast ship" speed="27.78" length="18.30" shape="6500.75,13015.18 6485.22,13005.50"/>
    </edge>
    <edge id=":10050420044_0" function="internal">
        <lane id=":10050420044_0_0" index="0" disallow="tram rail_urban rail rail_electric rail_fast ship" speed="27.78" length="12.18" shape="6144.30,12809.44 6133.95,12803.02"/>
    </edge>
    <edge id=":10050420044_1" function="internal">
        <lane id=":10050420044_1_0" index="0" disallow="tram rail_urban rail rail_electric rail_fast ship" speed="25.00" length="12.19" shape="6145.65,12806.02 6142.36,12805.50 6139.56,12805.14 6136.88,12804.46 6133.95,12803.02"/>
    </edge>
    <edge id=":10050420050_0" function="internal">
        <lane id=":10050420050_0_0" index="0" disallow="tram rail_urban rail rail_electric rail_fast ship" speed="6.87" length="9.19" shape="7056.45,13201.39 7055.01,13199.44 7053.23,13198.33 7051.11,13198.06 7048.65,13198.64"/>
    </edge>
    <edge id=":10050420050_1" function="internal">
        <lane id=":10050420050_1_0" index="0" disallow="tram rail_urban rail rail_electric rail_fast ship" speed="6.27" length="8.25" shape="7060.61,13192.74 7059.03,13194.00 7058.28,13195.61 7058.36,13197.57 7059.27,13199.88"/>
    </edge>
    <edge id=":10050420050_2" function="internal">
        <lane id=":10050420050_2_0" index="0" disallow="tram rail_urban rail rail_electric rail_fast ship" speed="27.78" length="13.35" shape="7060.61,13192.74 7057.55,13194.42 7054.74,13195.92 7051.87,13197.30 7048.65,13198.64"/>
    </edge>
    <edge id=":10050420057_0" function="internal">
        <lane id=":10050420057_0_0" index="0" disallow="tram rail_urban rail rail_electric rail_fast ship" speed="3.65" length="4.67" shape="7280.42,13457.21 7280.62,13458.64 7280.28,13459.47 7279.42,13459.70 7278.02,13459.33"/>
    </edge>
    <edge id=":10050420118_0" function="internal">
        <lane id=":10050420118_0_0" index="0" disallow="tram rail_urban rail rail_electric rail_fast ship" speed="3.65" length="4.67" shape="6310.51,12324.71 6311.87,12325.19 6312.46,12325.86 6312.27,12326.74 6311.31,12327.81"/>
    </edge>
    <edge id=":10050420189_0" function="internal">
        <lane id=":10050420189_0_0" index="0" disallow="tram rail_urban rail rail_electric rail_fast ship" speed="27.78" length="0.30" shape="6390.27,12950.39 6390.00,12950.23"/>
        <lane id=":10050420189_0_1" index="1" disallow="tram rail_urban rail rail_electric rail_fast ship" speed="27.78" length="0.30" shape="6391.95,12947.67 6391.70,12947.52"/>
    </edge>
    <edge id=":10050420190_0" function="internal">
        <lane id=":10050420190_0_0" index="0" disallow="tram rail_urban rail rail_electric rail_fast ship" speed="27.78" length="0.30" shape="6441.69,12982.13 6441.44,12981.97"/>
        <lane id=":10050420190_0_1" index="1" disallow="tram rail_urban rail rail_electric rail_fast ship" speed="27.78" length="0.30" shape="6443.38,12979.41 6443.12,12979.25"/>
    </edge>
    <edge id=":10050420192_0" function="internal">
        <lane id=":10050420192_0_0" index="0" disallow="tram rail_urban rail rail_electric rail_fast ship" speed="27.78" length="0.30" shape="6402.46,12931.16 6402.72,12931.33"/>
        <lane id=":10050420192_0_1" index="1" disallow="tram rail_urban rail rail_electric rail_fast ship" speed="27.78" length="0.30" shape="6400.77,12933.88 6401.01,12934.03"/>
    </edge>
    <edge id=":10050420193_0" function="internal">
        <lane id=":10050420193_0_0" index="0" disallow="tram rail_urban rail rail_electric rail_fast ship" speed="27.78" length="9.40" shape="6327.38,12910.95 6319.42,12905.95"/>
        <lane id=":10050420193_0_1" index="1" disallow="tram rail_urban rail rail_electric rail_fast ship" speed="27.78" length="9.40" shape="6329.08,12908.24 6321.12,12903.24"/>
    </edge>
    <edge id=":10050420193_2" function="internal">
        <lane id=":10050420193_2_0" index="0" disallow="tram rail_urban rail rail_electric rail_fast ship" speed="6.12" length="7.78" shape="6329.08,12908.24 6326.86,12906.61 6325.50,12905.07 6325.01,12903.61 6325.39,12902.23"/>
    </edge>
    <edge id=":10050420193_3" function="internal">
        <lane id=":10050420193_3_0" index="0" disallow="tram rail_urban rail rail_electric rail_fast ship" speed="6.07" length="7.80" shape="6328.12,12903.90 6327.07,12904.87 6325.55,12905.09 6323.57,12904.54 6321.12,12903.24"/>
    </edge>
    <edge id=":10050420193_4" function="internal">
        <lane id=":10050420193_4_0" index="0" disallow="tram rail_urban rail rail_electric rail_fast ship" speed="3.65" length="4.67" shape="6328.12,12903.90 6326.82,12904.51 6325.92,12904.43 6325.45,12903.67 6325.39,12902.23"/>
    </edge>
    <edge id=":10050591068_0" function="internal">
        <lane id=":10050591068_0_0" index="0" disallow="tram rail_urban rail rail_electric rail_fast ship" speed="6.50" length="9.03" shape="8780.72,12382.45 8778.79,12380.90 8776.83,12380.34 8774.84,12380.78 8772.81,12382.21"/>
    </edge>
    <edge id=":10050591068_1" function="internal">
        <lane id=":10050591068_1_0" index="0" disallow="tram rail_urban rail rail_electric rail_fast ship" speed="3.65" length="4.67" shape="8783.06,12380.26 8782.82,12378.84 8783.13,12378.00 8783.99,12377.75 8785.39,12378.08"/>
    </edge>
    <edge id=":10050591068_2" function="internal">
        <lane id=":10050591068_2_0" index="0" disallow="tram rail_urban rail rail_electric rail_fast ship" speed="9.31" length="19.65" shape="8770.62,12379.88 8775.84,12375.71 8780.43,12373.66 8784.39,12373.72 8787.73,12375.89"/>
        <lane id=":10050591068_2_1" index="1" disallow="tram rail_urban rail rail_electric rail_fast ship" speed="8.67" length="16.87" shape="8770.62,12379.88 8774.82,12376.67 8778.68,12375.31 8782.21,12375.77 8785.39,12378.08"/>
    </edge>
    <edge id=":10050591068_4" function="internal">
        <lane id=":10050591068_4_0" index="0" disallow="tram rail_urban rail rail_electric rail_fast ship" speed="3.65" length="4.67" shape="8770.62,12379.88 8772.04,12379.64 8772.88,12379.94 8773.14,12380.80 8772.81,12382.21"/>
    </edge>
    <edge id=":10050953519_0" function="internal">
        <lane id=":10050953519_0_0" index="0" disallow="tram rail_urban rail rail_electric rail_fast ship" speed="6.54" length="9.09" shape="7761.10,12436.09 7759.08,12434.64 7757.08,12434.17 7755.09,12434.70 7753.12,12436.22"/>
    </edge>
    <edge id=":10050953519_1" function="internal">
        <lane id=":10050953519_1_0" index="0" disallow="tram rail_urban rail rail_electric rail_fast ship" speed="13.89" length="14.44" shape="7761.10,12436.09 7750.69,12426.09"/>
    </edge>
    <edge id=":10050953519_2" function="internal">
        <lane id=":10050953519_2_0" index="0" disallow="tram rail_urban rail rail_electric rail_fast ship" speed="7.99" length="14.21" shape="7761.10,12436.09 7758.71,12433.02 7757.88,12429.92 7758.61,12426.79 7760.91,12423.65"/>
    </edge>
    <edge id=":10050953519_3" function="internal">
        <lane id=":10050953519_3_0" index="0" disallow="tram rail_urban rail rail_electric rail_fast ship" speed="3.65" length="4.67" shape="7761.10,12436.09 7760.79,12434.68 7761.06,12433.83 7761.90,12433.53 7763.32,12433.79"/>
    </edge>
    <edge id=":10050953519_4" function="internal">
        <lane id=":10050953519_4_0" index="0" disallow="tram rail_urban rail rail_electric rail_fast ship" speed="6.50" length="9.03" shape="7763.20,12425.88 7761.74,12427.88 7761.28,12429.87 7761.80,12431.84 7763.32,12433.79"/>
    </edge>
    <edge id=":10050953519_5" function="internal">
        <lane id=":10050953519_5_0" index="0" disallow="tram rail_urban rail rail_electric rail_fast ship" speed="22.22" length="14.45" shape="7763.20,12425.88 7753.12,12436.22"/>
    </edge>
    <edge id=":10050953519_6" function="internal">
        <lane id=":10050953519_6_0" index="0" disallow="tram rail_urban rail rail_electric rail_fast ship" speed="8.04" length="4.07" shape="7763.20,12425.88 7760.12,12428.26 7759.95,12428.30"/>
    </edge>
    <edge id=":10050953519_7" function="internal">
        <lane id=":10050953519_7_0" index="0" disallow="tram rail_urban rail rail_electric rail_fast ship" speed="3.65" length="1.44" shape="7763.20,12425.88 7761.79,12426.18"/>
    </edge>
    <edge id=":10050953519_16" function="internal">
        <lane id=":10050953519_16_0" index="0" disallow="tram rail_urban rail rail_electric rail_fast ship" speed="8.04" length="10.17" shape="7759.95,12428.30 7757.00,12429.08 7753.86,12428.36 7750.69,12426.09"/>
    </edge>
    <edge id=":10050953519_17" function="internal">
        <lane id=":10050953519_17_0" index="0" disallow="tram rail_urban rail rail_electric rail_fast ship" speed="3.65" length="3.23" shape="7761.79,12426.18 7760.94,12425.91 7760.65,12425.06 7760.91,12423.65"/>
    </edge>
    <edge id=":10050953519_8" function="internal">
        <lane id=":10050953519_8_0" index="0" disallow="tram rail_urban rail rail_electric rail_fast ship" speed="6.56" length="9.11" shape="7752.90,12423.77 7754.93,12425.23 7756.94,12425.69 7758.94,12425.17 7760.91,12423.65"/>
    </edge>
    <edge id=":10050953519_9" function="internal">
        <lane id=":10050953519_9_0" index="0" disallow="tram rail_urban rail rail_electric rail_fast ship" speed="13.89" length="14.45" shape="7752.90,12423.77 7763.32,12433.79"/>
    </edge>
    <edge id=":10050953519_10" function="internal">
        <lane id=":10050953519_10_0" index="0" disallow="tram rail_urban rail rail_electric rail_fast ship" speed="7.99" length="14.23" shape="7752.90,12423.77 7755.31,12426.85 7756.15,12429.94 7755.42,12433.07 7753.12,12436.22"/>
    </edge>
    <edge id=":10050953519_11" function="internal">
        <lane id=":10050953519_11_0" index="0" disallow="tram rail_urban rail rail_electric rail_fast ship" speed="3.65" length="4.67" shape="7752.90,12423.77 7753.22,12425.18 7752.95,12426.04 7752.11,12426.34 7750.69,12426.09"/>
    </edge>
    <edge id=":10050953519_12" function="internal">
        <lane id=":10050953519_12_0" index="0" disallow="tram rail_urban rail rail_electric rail_fast ship" speed="6.49" length="9.03" shape="7750.83,12433.99 7752.29,12431.99 7752.75,12430.00 7752.22,12428.04 7750.69,12426.09"/>
    </edge>
    <edge id=":10050953519_13" function="internal">
        <lane id=":10050953519_13_0" index="0" disallow="tram rail_urban rail rail_electric rail_fast ship" speed="22.22" length="14.45" shape="7750.83,12433.99 7760.91,12423.65"/>
    </edge>
    <edge id=":10050953519_14" function="internal">
        <lane id=":10050953519_14_0" index="0" disallow="tram rail_urban rail rail_electric rail_fast ship" speed="8.03" length="4.08" shape="7750.83,12433.99 7753.92,12431.61 7754.09,12431.56"/>
    </edge>
    <edge id=":10050953519_15" function="internal">
        <lane id=":10050953519_15_0" index="0" disallow="tram rail_urban rail rail_electric rail_fast ship" speed="3.65" length="1.44" shape="7750.83,12433.99 7752.24,12433.69"/>
    </edge>
    <edge id=":10050953519_18" function="internal">
        <lane id=":10050953519_18_0" index="0" disallow="tram rail_urban rail rail_electric rail_fast ship" speed="8.03" length="10.16" shape="7754.09,12431.56 7757.03,12430.78 7760.17,12431.51 7763.32,12433.79"/>
    </edge>
    <edge id=":10050953519_19" function="internal">
        <lane id=":10050953519_19_0" index="0" disallow="tram rail_urban rail rail_electric rail_fast ship" speed="3.65" length="3.23" shape="7752.24,12433.69 7753.09,12433.96 7753.38,12434.81 7753.12,12436.22"/>
    </edge>
    <edge id=":10050953520_0" function="internal">
        <lane id=":10050953520_0_0" index="0" disallow="tram rail_urban rail rail_electric rail_fast ship" speed="6.54" length="9.07" shape="7666.85,12345.82 7664.82,12344.36 7662.82,12343.90 7660.84,12344.42 7658.88,12345.93"/>
    </edge>
    <edge id=":10050953520_1" function="internal">
        <lane id=":10050953520_1_0" index="0" disallow="tram rail_urban rail rail_electric rail_fast ship" speed="8.66" length="16.90" shape="7666.85,12345.82 7663.43,12341.78 7661.87,12337.98 7662.17,12334.44 7664.34,12331.14"/>
    </edge>
    <edge id=":10050953520_2" function="internal">
        <lane id=":10050953520_2_0" index="0" disallow="tram rail_urban rail rail_electric rail_fast ship" speed="3.65" length="4.67" shape="7666.85,12345.82 7666.53,12344.41 7666.80,12343.56 7667.64,12343.25 7669.06,12343.51"/>
    </edge>
    <edge id=":10050953520_3" function="internal">
        <lane id=":10050953520_3_0" index="0" disallow="tram rail_urban rail rail_electric rail_fast ship" speed="6.49" length="9.03" shape="7668.92,12335.60 7667.46,12337.60 7667.00,12339.59 7667.53,12341.56 7669.06,12343.51"/>
    </edge>
    <edge id=":10050953520_4" function="internal">
        <lane id=":10050953520_4_0" index="0" disallow="tram rail_urban rail rail_electric rail_fast ship" speed="22.22" length="14.41" shape="7668.92,12335.60 7658.88,12345.93"/>
        <lane id=":10050953520_4_1" index="1" disallow="tram rail_urban rail rail_electric rail_fast ship" speed="22.22" length="14.41" shape="7666.63,12333.37 7656.58,12343.70"/>
    </edge>
    <edge id=":10050953520_6" function="internal">
        <lane id=":10050953520_6_0" index="0" disallow="tram rail_urban rail rail_electric rail_fast ship" speed="3.65" length="1.44" shape="7666.63,12333.37 7665.22,12333.67"/>
    </edge>
    <edge id=":10050953520_11" function="internal">
        <lane id=":10050953520_11_0" index="0" disallow="tram rail_urban rail rail_electric rail_fast ship" speed="3.65" length="3.23" shape="7665.22,12333.67 7664.37,12333.40 7664.08,12332.55 7664.34,12331.14"/>
    </edge>
    <edge id=":10050953520_7" function="internal">
        <lane id=":10050953520_7_0" index="0" disallow="tram rail_urban rail rail_electric rail_fast ship" speed="22.22" length="14.42" shape="7651.99,12339.24 7662.05,12328.90"/>
        <lane id=":10050953520_7_1" index="1" disallow="tram rail_urban rail rail_electric rail_fast ship" speed="22.22" length="14.42" shape="7654.29,12341.47 7664.34,12331.14"/>
    </edge>
    <edge id=":10050953520_9" function="internal">
        <lane id=":10050953520_9_0" index="0" disallow="tram rail_urban rail rail_electric rail_fast ship" speed="8.69" length="3.70" shape="7654.29,12341.47 7657.33,12339.36"/>
    </edge>
    <edge id=":10050953520_10" function="internal">
        <lane id=":10050953520_10_0" index="0" disallow="tram rail_urban rail rail_electric rail_fast ship" speed="3.65" length="1.44" shape="7654.29,12341.47 7655.70,12341.17"/>
    </edge>
    <edge id=":10050953520_12" function="internal">
        <lane id=":10050953520_12_0" index="0" disallow="tram rail_urban rail rail_electric rail_fast ship" speed="8.69" length="13.16" shape="7657.33,12339.36 7657.50,12339.25 7661.03,12338.84 7664.88,12340.26 7669.06,12343.51"/>
    </edge>
    <edge id=":10050953520_13" function="internal">
        <lane id=":10050953520_13_0" index="0" disallow="tram rail_urban rail rail_electric rail_fast ship" speed="3.65" length="3.23" shape="7655.70,12341.17 7656.55,12341.44 7656.85,12342.28 7656.58,12343.70"/>
    </edge>
    <edge id=":10050953521_0" function="internal">
        <lane id=":10050953521_0_0" index="0" disallow="tram rail_urban rail rail_electric rail_fast ship" speed="6.54" length="9.10" shape="7795.23,12401.10 7793.21,12399.65 7791.20,12399.18 7789.21,12399.71 7787.24,12401.23"/>
    </edge>
    <edge id=":10050953521_1" function="internal">
        <lane id=":10050953521_1_0" index="0" disallow="tram rail_urban rail rail_electric rail_fast ship" speed="13.89" length="14.44" shape="7795.23,12401.10 7784.81,12391.10"/>
    </edge>
    <edge id=":10050953521_2" function="internal">
        <lane id=":10050953521_2_0" index="0" disallow="tram rail_urban rail rail_electric rail_fast ship" speed="7.99" length="14.21" shape="7795.23,12401.10 7792.83,12398.03 7792.00,12394.93 7792.73,12391.80 7795.03,12388.65"/>
    </edge>
    <edge id=":10050953521_3" function="internal">
        <lane id=":10050953521_3_0" index="0" disallow="tram rail_urban rail rail_electric rail_fast ship" speed="3.65" length="4.67" shape="7795.23,12401.10 7794.92,12399.69 7795.18,12398.84 7796.03,12398.54 7797.45,12398.80"/>
    </edge>
    <edge id=":10050953521_4" function="internal">
        <lane id=":10050953521_4_0" index="0" disallow="tram rail_urban rail rail_electric rail_fast ship" speed="6.50" length="9.03" shape="7797.32,12390.89 7795.86,12392.89 7795.40,12394.87 7795.92,12396.84 7797.45,12398.80"/>
    </edge>
    <edge id=":10050953521_5" function="internal">
        <lane id=":10050953521_5_0" index="0" disallow="tram rail_urban rail rail_electric rail_fast ship" speed="22.22" length="14.45" shape="7797.32,12390.89 7787.24,12401.23"/>
    </edge>
    <edge id=":10050953521_6" function="internal">
        <lane id=":10050953521_6_0" index="0" disallow="tram rail_urban rail rail_electric rail_fast ship" speed="8.04" length="4.07" shape="7797.32,12390.89 7794.24,12393.27 7794.07,12393.31"/>
    </edge>
    <edge id=":10050953521_7" function="internal">
        <lane id=":10050953521_7_0" index="0" disallow="tram rail_urban rail rail_electric rail_fast ship" speed="3.65" length="1.44" shape="7797.32,12390.89 7795.91,12391.19"/>
    </edge>
    <edge id=":10050953521_16" function="internal">
        <lane id=":10050953521_16_0" index="0" disallow="tram rail_urban rail rail_electric rail_fast ship" speed="8.04" length="10.17" shape="7794.07,12393.31 7791.12,12394.09 7787.98,12393.37 7784.81,12391.10"/>
    </edge>
    <edge id=":10050953521_17" function="internal">
        <lane id=":10050953521_17_0" index="0" disallow="tram rail_urban rail rail_electric rail_fast ship" speed="3.65" length="3.23" shape="7795.91,12391.19 7795.06,12390.92 7794.77,12390.07 7795.03,12388.65"/>
    </edge>
    <edge id=":10050953521_8" function="internal">
        <lane id=":10050953521_8_0" index="0" disallow="tram rail_urban rail rail_electric rail_fast ship" speed="6.56" length="9.12" shape="7787.02,12388.79 7789.05,12390.24 7791.06,12390.70 7793.06,12390.18 7795.03,12388.65"/>
    </edge>
    <edge id=":10050953521_9" function="internal">
        <lane id=":10050953521_9_0" index="0" disallow="tram rail_urban rail rail_electric rail_fast ship" speed="13.89" length="14.46" shape="7787.02,12388.79 7797.45,12398.80"/>
    </edge>
    <edge id=":10050953521_10" function="internal">
        <lane id=":10050953521_10_0" index="0" disallow="tram rail_urban rail rail_electric rail_fast ship" speed="7.98" length="14.23" shape="7787.02,12388.79 7789.43,12391.86 7790.27,12394.96 7789.54,12398.08 7787.24,12401.23"/>
    </edge>
    <edge id=":10050953521_11" function="internal">
        <lane id=":10050953521_11_0" index="0" disallow="tram rail_urban rail rail_electric rail_fast ship" speed="3.65" length="4.67" shape="7787.02,12388.79 7787.33,12390.19 7787.07,12391.05 7786.23,12391.35 7784.81,12391.10"/>
    </edge>
    <edge id=":10050953521_12" function="internal">
        <lane id=":10050953521_12_0" index="0" disallow="tram rail_urban rail rail_electric rail_fast ship" speed="6.49" length="9.03" shape="7784.95,12399.00 7786.41,12397.00 7786.87,12395.01 7786.34,12393.05 7784.81,12391.10"/>
    </edge>
    <edge id=":10050953521_13" function="internal">
        <lane id=":10050953521_13_0" index="0" disallow="tram rail_urban rail rail_electric rail_fast ship" speed="22.22" length="14.45" shape="7784.95,12399.00 7795.03,12388.65"/>
    </edge>
    <edge id=":10050953521_14" function="internal">
        <lane id=":10050953521_14_0" index="0" disallow="tram rail_urban rail rail_electric rail_fast ship" speed="8.03" length="4.08" shape="7784.95,12399.00 7788.04,12396.62 7788.21,12396.57"/>
    </edge>
    <edge id=":10050953521_15" function="internal">
        <lane id=":10050953521_15_0" index="0" disallow="tram rail_urban rail rail_electric rail_fast ship" speed="3.65" length="1.44" shape="7784.95,12399.00 7786.36,12398.70"/>
    </edge>
    <edge id=":10050953521_18" function="internal">
        <lane id=":10050953521_18_0" index="0" disallow="tram rail_urban rail rail_electric rail_fast ship" speed="8.03" length="10.16" shape="7788.21,12396.57 7791.15,12395.79 7794.29,12396.52 7797.45,12398.80"/>
    </edge>
    <edge id=":10050953521_19" function="internal">
        <lane id=":10050953521_19_0" index="0" disallow="tram rail_urban rail rail_electric rail_fast ship" speed="3.65" length="3.23" shape="7786.36,12398.70 7787.21,12398.97 7787.50,12399.82 7787.24,12401.23"/>
    </edge>
    <edge id=":10050953522_0" function="internal">
        <lane id=":10050953522_0_0" index="0" disallow="tram rail_urban rail rail_electric rail_fast ship" speed="6.52" length="9.05" shape="7829.01,12366.42 7827.01,12364.96 7825.01,12364.49 7823.04,12365.02 7821.07,12366.53"/>
    </edge>
    <edge id=":10050953522_1" function="internal">
        <lane id=":10050953522_1_0" index="0" disallow="tram rail_urban rail rail_electric rail_fast ship" speed="13.89" length="14.41" shape="7829.01,12366.42 7818.67,12356.38"/>
    </edge>
    <edge id=":10050953522_2" function="internal">
        <lane id=":10050953522_2_0" index="0" disallow="tram rail_urban rail rail_electric rail_fast ship" speed="8.00" length="14.20" shape="7829.01,12366.42 7826.63,12363.34 7825.81,12360.24 7826.55,12357.12 7828.84,12353.98"/>
    </edge>
    <edge id=":10050953522_3" function="internal">
        <lane id=":10050953522_3_0" index="0" disallow="tram rail_urban rail rail_electric rail_fast ship" speed="3.65" length="4.67" shape="7829.01,12366.42 7828.71,12365.01 7828.98,12364.16 7829.82,12363.86 7831.24,12364.13"/>
    </edge>
    <edge id=":10050953522_4" function="internal">
        <lane id=":10050953522_4_0" index="0" disallow="tram rail_urban rail rail_electric rail_fast ship" speed="6.50" length="9.03" shape="7831.14,12356.21 7829.67,12358.21 7829.21,12360.19 7829.73,12362.17 7831.24,12364.13"/>
    </edge>
    <edge id=":10050953522_5" function="internal">
        <lane id=":10050953522_5_0" index="0" disallow="tram rail_urban rail rail_electric rail_fast ship" speed="22.22" length="14.42" shape="7831.14,12356.21 7821.07,12366.53"/>
    </edge>
    <edge id=":10050953522_6" function="internal">
        <lane id=":10050953522_6_0" index="0" disallow="tram rail_urban rail rail_electric rail_fast ship" speed="8.02" length="4.07" shape="7831.14,12356.21 7828.05,12358.58 7827.88,12358.63"/>
    </edge>
    <edge id=":10050953522_7" function="internal">
        <lane id=":10050953522_7_0" index="0" disallow="tram rail_urban rail rail_electric rail_fast ship" speed="3.65" length="1.44" shape="7831.14,12356.21 7829.72,12356.51"/>
    </edge>
    <edge id=":10050953522_16" function="internal">
        <lane id=":10050953522_16_0" index="0" disallow="tram rail_urban rail rail_electric rail_fast ship" speed="8.02" length="10.14" shape="7827.88,12358.63 7824.95,12359.40 7821.82,12358.67 7818.67,12356.38"/>
    </edge>
    <edge id=":10050953522_17" function="internal">
        <lane id=":10050953522_17_0" index="0" disallow="tram rail_urban rail rail_electric rail_fast ship" speed="3.65" length="3.23" shape="7829.72,12356.51 7828.87,12356.24 7828.58,12355.39 7828.84,12353.98"/>
    </edge>
    <edge id=":10050953522_8" function="internal">
        <lane id=":10050953522_8_0" index="0" disallow="tram rail_urban rail rail_electric rail_fast ship" speed="6.53" length="9.06" shape="7820.89,12354.08 7822.90,12355.54 7824.90,12356.01 7826.88,12355.49 7828.84,12353.98"/>
    </edge>
    <edge id=":10050953522_9" function="internal">
        <lane id=":10050953522_9_0" index="0" disallow="tram rail_urban rail rail_electric rail_fast ship" speed="13.89" length="14.42" shape="7820.89,12354.08 7831.24,12364.13"/>
    </edge>
    <edge id=":10050953522_10" function="internal">
        <lane id=":10050953522_10_0" index="0" disallow="tram rail_urban rail rail_electric rail_fast ship" speed="8.00" length="14.21" shape="7820.89,12354.08 7823.28,12357.16 7824.10,12360.26 7823.37,12363.39 7821.07,12366.53"/>
    </edge>
    <edge id=":10050953522_11" function="internal">
        <lane id=":10050953522_11_0" index="0" disallow="tram rail_urban rail rail_electric rail_fast ship" speed="3.65" length="4.67" shape="7820.89,12354.08 7821.20,12355.49 7820.93,12356.35 7820.08,12356.64 7818.67,12356.38"/>
    </edge>
    <edge id=":10050953522_12" function="internal">
        <lane id=":10050953522_12_0" index="0" disallow="tram rail_urban rail rail_electric rail_fast ship" speed="6.50" length="9.03" shape="7818.78,12364.30 7820.24,12362.30 7820.71,12360.31 7820.18,12358.34 7818.67,12356.38"/>
    </edge>
    <edge id=":10050953522_13" function="internal">
        <lane id=":10050953522_13_0" index="0" disallow="tram rail_urban rail rail_electric rail_fast ship" speed="22.22" length="14.42" shape="7818.78,12364.30 7828.84,12353.98"/>
    </edge>
    <edge id=":10050953522_14" function="internal">
        <lane id=":10050953522_14_0" index="0" disallow="tram rail_urban rail rail_electric rail_fast ship" speed="8.01" length="4.07" shape="7818.78,12364.30 7821.87,12361.92 7822.04,12361.88"/>
    </edge>
    <edge id=":10050953522_15" function="internal">
        <lane id=":10050953522_15_0" index="0" disallow="tram rail_urban rail rail_electric rail_fast ship" speed="3.65" length="1.44" shape="7818.78,12364.30 7820.19,12364.00"/>
    </edge>
    <edge id=":10050953522_18" function="internal">