<?xml version="1.0" encoding="UTF-8"?>

<configuration xmlns:xsi="http://www.w3.org/2001/XMLSchema-instance" xsi:noNamespaceSchemaLocation="http://sumo.dlr.de/xsd/sumoConfiguration.xsd">

    <input>
        <net-file value="test4.net.xml"/>
        <route-files value="test4.rou.xml"/>
        <gui-settings-file value="viewsettings.xml"/>
        <additional-files value="add.add.xml"/>
    </input>

    <processing>
        <time-to-teleport value="1000"/>
        <collision.action value="none"/>
        <mesosim value="TRUE"/>
    </processing>

</configuration>
