<?xml version="1.0" encoding="UTF-8"?>
<routes><trip id="0" depart="0" from="219823957" to="ramp1MergeTo" /><trip id="1" depart="0" from="29496808#0" to="ramp1MergeTo" /><trip id="2" depart="0" from="29496808#0" to="ramp1MergeTo" /><trip id="3" depart="1" from="29496808#0" to="ramp1MergeTo" /><trip id="4" depart="1" from="29496808#0" to="ramp1MergeTo" /><trip id="5" depart="1" from="29496808#0" to="ramp1MergeTo" /><trip id="6" depart="1" from="29496808#0" to="ramp1MergeTo" /><trip id="7" depart="1" from="29496808#0" to="ramp1MergeTo" /><trip id="8" depart="2" from="29496808#0" to="ramp1MergeTo" /><trip id="9" depart="2" from="29496808#0" to="ramp1MergeTo" /><trip id="10" depart="3" from="219823957" to="ramp1MergeTo" /><trip id="11" depart="3" from="29496808#0" to="ramp1MergeTo" /><trip id="12" depart="3" from="29496808#0" to="ramp1MergeTo" /><trip id="13" depart="3" from="29496808#0" to="ramp1MergeTo" /><trip id="14" depart="4" from="29496808#0" to="ramp1MergeTo" /><trip id="15" depart="4" from="29496808#0" to="ramp1MergeTo" /><trip id="16" depart="4" from="29496808#0" to="ramp1MergeTo" /><trip id="17" depart="5" from="29496808#0" to="ramp1MergeTo" /><trip id="18" depart="5" from="29496808#0" to="ramp1MergeTo" /><trip id="19" depart="5" from="830650862" to="ramp1MergeTo" /><trip id="20" depart="6" from="29496808#0" to="ramp1MergeTo" /><trip id="21" depart="6" from="29496808#0" to="ramp1MergeTo" /><trip id="22" depart="6" from="29496808#0" to="ramp1MergeTo" /><trip id="23" depart="7" from="29496808#0" to="ramp1MergeTo" /><trip id="24" depart="7" from="29496808#0" to="ramp1MergeTo" /><trip id="25" depart="8" from="29496808#0" to="ramp1MergeTo" /><trip id="26" depart="8" from="29496808#0" to="ramp1MergeTo" /><trip id="27" depart="8" from="29496808#0" to="ramp1MergeTo" /><trip id="28" depart="8" from="29496808#0" to="ramp1MergeTo" /><trip id="29" depart="9" from="830650862" to="ramp1MergeTo" /><trip id="30" depart="9" from="29496808#0" to="ramp1MergeTo" /><trip id="31" depart="9" from="29496808#0" to="ramp1MergeTo" /><trip id="32" depart="10" from="29496808#0" to="ramp1MergeTo" /><trip id="33" depart="10" from="29496808#0" to="ramp1MergeTo" /><trip id="34" depart="10" from="29496808#0" to="ramp1MergeTo" /><trip id="35" depart="11" from="219823957" to="ramp1MergeTo" /><trip id="36" depart="11" from="29496808#0" to="ramp1MergeTo" /><trip id="37" depart="11" from="29496808#0" to="ramp1MergeTo" /><trip id="38" depart="11" from="29496808#0" to="ramp1MergeTo" /><trip id="39" depart="12" from="29496808#0" to="ramp1MergeTo" /><trip id="40" depart="12" from="29496808#0" to="ramp1MergeTo" /><trip id="41" depart="12" from="29496808#0" to="ramp1MergeTo" /><trip id="42" depart="13" from="219823957" to="ramp1MergeTo" /><trip id="43" depart="13" from="219823957" to="ramp1MergeTo" /><trip id="44" depart="13" from="29496808#0" to="ramp1MergeTo" /><trip id="45" depart="13" from="830650862" to="ramp1MergeTo" /><trip id="46" depart="13" from="219823957" to="ramp1MergeTo" /><trip id="47" depart="13" from="29496808#0" to="ramp1MergeTo" /><trip id="48" depart="14" from="29496808#0" to="ramp1MergeTo" /><trip id="49" depart="14" from="830650862" to="ramp1MergeTo" /><trip id="50" depart="14" from="29496808#0" to="ramp1MergeTo" /><trip id="51" depart="15" from="29496808#0" to="ramp1MergeTo" /><trip id="52" depart="15" from="29496808#0" to="ramp1MergeTo" /><trip id="53" depart="15" from="830650862" to="ramp1MergeTo" /><trip id="54" depart="15" from="29496808#0" to="ramp1MergeTo" /><trip id="55" depart="16" from="29496808#0" to="ramp1MergeTo" /><trip id="56" depart="16" from="29496808#0" to="ramp1MergeTo" /><trip id="57" depart="16" from="830650862" to="ramp1MergeTo" /><trip id="58" depart="16" from="219823957" to="ramp1MergeTo" /><trip id="59" depart="17" from="29496808#0" to="ramp1MergeTo" /><trip id="60" depart="17" from="29496808#0" to="ramp1MergeTo" /><trip id="61" depart="17" from="29496808#0" to="ramp1MergeTo" /><trip id="62" depart="17" from="29496808#0" to="ramp1MergeTo" /><trip id="63" depart="18" from="29496808#0" to="ramp1MergeTo" /><trip id="64" depart="18" from="29496808#0" to="ramp1MergeTo" /><trip id="65" depart="18" from="29496808#0" to="ramp1MergeTo" /><trip id="66" depart="18" from="29496808#0" to="ramp1MergeTo" /><trip id="67" depart="19" from="29496808#0" to="ramp1MergeTo" /><trip id="68" depart="19" from="29496808#0" to="ramp1MergeTo" /><trip id="69" depart="19" from="830650862" to="ramp1MergeTo" /><trip id="70" depart="20" from="29496808#0" to="ramp1MergeTo" /><trip id="71" depart="20" from="29496808#0" to="ramp1MergeTo" /><trip id="72" depart="20" from="29496808#0" to="ramp1MergeTo" /><trip id="73" depart="21" from="830650862" to="ramp1MergeTo" /><trip id="74" depart="21" from="29496808#0" to="ramp1MergeTo" /><trip id="75" depart="22" from="29496808#0" to="ramp1MergeTo" /><trip id="76" depart="22" from="29496808#0" to="ramp1MergeTo" /><trip id="77" depart="23" from="29496808#0" to="ramp1MergeTo" /><trip id="78" depart="23" from="29496808#0" to="ramp1MergeTo" /><trip id="79" depart="23" from="219823957" to="ramp1MergeTo" /><trip id="80" depart="23" from="29496808#0" to="ramp1MergeTo" /><trip id="81" depart="23" from="29496808#0" to="ramp1MergeTo" /><trip id="82" depart="23" from="29496808#0" to="ramp1MergeTo" /><trip id="83" depart="23" from="29496808#0" to="ramp1MergeTo" /><trip id="84" depart="24" from="29496808#0" to="ramp1MergeTo" /><trip id="85" depart="24" from="29496808#0" to="ramp1MergeTo" /><trip id="86" depart="24" from="830650862" to="ramp1MergeTo" /><trip id="87" depart="24" from="219823957" to="ramp1MergeTo" /><trip id="88" depart="24" from="29496808#0" to="ramp1MergeTo" /><trip id="89" depart="24" from="29496808#0" to="ramp1MergeTo" /><trip id="90" depart="25" from="29496808#0" to="ramp1MergeTo" /><trip id="91" depart="26" from="29496808#0" to="ramp1MergeTo" /><trip id="92" depart="26" from="219823957" to="ramp1MergeTo" /><trip id="93" depart="27" from="830650862" to="ramp1MergeTo" /><trip id="94" depart="27" from="219823957" to="ramp1MergeTo" /><trip id="95" depart="27" from="29496808#0" to="ramp1MergeTo" /><trip id="96" depart="27" from="29496808#0" to="ramp1MergeTo" /><trip id="97" depart="28" from="29496808#0" to="ramp1MergeTo" /><trip id="98" depart="28" from="29496808#0" to="ramp1MergeTo" /><trip id="99" depart="28" from="29496808#0" to="ramp1MergeTo" /><trip id="100" depart="28" from="29496808#0" to="ramp1MergeTo" /><trip id="101" depart="28" from="29496808#0" to="ramp1MergeTo" /><trip id="102" depart="28" from="29496808#0" to="ramp1MergeTo" /><trip id="103" depart="29" from="219823957" to="ramp1MergeTo" /><trip id="104" depart="29" from="29496808#0" to="ramp1MergeTo" /><trip id="105" depart="29" from="830650862" to="ramp1MergeTo" /><trip id="106" depart="30" from="29496808#0" to="ramp1MergeTo" /><trip id="107" depart="30" from="29496808#0" to="ramp1MergeTo" /><trip id="108" depart="31" from="219823957" to="ramp1MergeTo" /><trip id="109" depart="31" from="29496808#0" to="ramp1MergeTo" /><trip id="110" depart="31" from="830650862" to="ramp1MergeTo" /><trip id="111" depart="32" from="29496808#0" to="ramp1MergeTo" /><trip id="112" depart="32" from="29496808#0" to="ramp1MergeTo" /><trip id="113" depart="32" from="29496808#0" to="ramp1MergeTo" /><trip id="114" depart="33" from="29496808#0" to="ramp1MergeTo" /><trip id="115" depart="33" from="29496808#0" to="ramp1MergeTo" /><trip id="116" depart="33" from="29496808#0" to="ramp1MergeTo" /><trip id="117" depart="33" from="29496808#0" to="ramp1MergeTo" /><trip id="118" depart="33" from="29496808#0" to="ramp1MergeTo" /><trip id="119" depart="34" from="29496808#0" to="ramp1MergeTo" /><trip id="120" depart="34" from="219823957" to="ramp1MergeTo" /><trip id="121" depart="35" from="29496808#0" to="ramp1MergeTo" /><trip id="122" depart="35" from="29496808#0" to="ramp1MergeTo" /><trip id="123" depart="36" from="29496808#0" to="ramp1MergeTo" /><trip id="124" depart="36" from="830650862" to="ramp1MergeTo" /><trip id="125" depart="37" from="830650862" to="ramp1MergeTo" /><trip id="126" depart="37" from="830650862" to="ramp1MergeTo" /><trip id="127" depart="37" from="29496808#0" to="ramp1MergeTo" /><trip id="128" depart="38" from="29496808#0" to="ramp1MergeTo" /><trip id="129" depart="38" from="29496808#0" to="ramp1MergeTo" /><trip id="130" depart="38" from="29496808#0" to="ramp1MergeTo" /><trip id="131" depart="38" from="29496808#0" to="ramp1MergeTo" /><trip id="132" depart="38" from="29496808#0" to="ramp1MergeTo" /><trip id="133" depart="39" from="29496808#0" to="ramp1MergeTo" /><trip id="134" depart="39" from="29496808#0" to="ramp1MergeTo" /><trip id="135" depart="39" from="29496808#0" to="ramp1MergeTo" /><trip id="136" depart="40" from="29496808#0" to="ramp1MergeTo" /><trip id="137" depart="40" from="29496808#0" to="ramp1MergeTo" /><trip id="138" depart="40" from="29496808#0" to="ramp1MergeTo" /><trip id="139" depart="40" from="29496808#0" to="ramp1MergeTo" /><trip id="140" depart="41" from="29496808#0" to="ramp1MergeTo" /><trip id="141" depart="41" from="29496808#0" to="ramp1MergeTo" /><trip id="142" depart="42" from="29496808#0" to="ramp1MergeTo" /><trip id="143" depart="42" from="29496808#0" to="ramp1MergeTo" /><trip id="144" depart="43" from="219823957" to="ramp1MergeTo" /><trip id="145" depart="43" from="29496808#0" to="ramp1MergeTo" /><trip id="146" depart="43" from="29496808#0" to="ramp1MergeTo" /><trip id="147" depart="44" from="830650862" to="ramp1MergeTo" /><trip id="148" depart="44" from="29496808#0" to="ramp1MergeTo" /><trip id="149" depart="44" from="830650862" to="ramp1MergeTo" /><trip id="150" depart="44" from="29496808#0" to="ramp1MergeTo" /><trip id="151" depart="44" from="29496808#0" to="ramp1MergeTo" /><trip id="152" depart="44" from="29496808#0" to="ramp1MergeTo" /><trip id="153" depart="45" from="219823957" to="ramp1MergeTo" /><trip id="154" depart="45" from="29496808#0" to="ramp1MergeTo" /><trip id="155" depart="47" from="29496808#0" to="ramp1MergeTo" /><trip id="156" depart="47" from="219823957" to="ramp1MergeTo" /><trip id="157" depart="48" from="830650862" to="ramp1MergeTo" /><trip id="158" depart="48" from="29496808#0" to="ramp1MergeTo" /><trip id="159" depart="49" from="219823957" to="ramp1MergeTo" /><trip id="160" depart="49" from="29496808#0" to="ramp1MergeTo" /><trip id="161" depart="49" from="29496808#0" to="ramp1MergeTo" /><trip id="162" depart="49" from="29496808#0" to="ramp1MergeTo" /><trip id="163" depart="50" from="29496808#0" to="ramp1MergeTo" /><trip id="164" depart="50" from="29496808#0" to="ramp1MergeTo" /><trip id="165" depart="50" from="29496808#0" to="ramp1MergeTo" /><trip id="166" depart="50" from="29496808#0" to="ramp1MergeTo" /><trip id="167" depart="50" from="29496808#0" to="ramp1MergeTo" /><trip id="168" depart="51" from="29496808#0" to="ramp1MergeTo" /><trip id="169" depart="51" from="29496808#0" to="ramp1MergeTo" /><trip id="170" depart="51" from="219823957" to="ramp1MergeTo" /><trip id="171" depart="52" from="29496808#0" to="ramp1MergeTo" /><trip id="172" depart="52" from="219823957" to="ramp1MergeTo" /><trip id="173" depart="52" from="29496808#0" to="ramp1MergeTo" /><trip id="174" depart="52" from="29496808#0" to="ramp1MergeTo" /><trip id="175" depart="52" from="29496808#0" to="ramp1MergeTo" /><trip id="176" depart="52" from="29496808#0" to="ramp1MergeTo" /><trip id="177" depart="53" from="219823957" to="ramp1MergeTo" /><trip id="178" depart="53" from="219823957" to="ramp1MergeTo" /><trip id="179" depart="53" from="29496808#0" to="ramp1MergeTo" /><trip id="180" depart="54" from="29496808#0" to="ramp1MergeTo" /><trip id="181" depart="54" from="29496808#0" to="ramp1MergeTo" /><trip id="182" depart="54" from="219823957" to="ramp1MergeTo" /><trip id="183" depart="54" from="29496808#0" to="ramp1MergeTo" /><trip id="184" depart="54" from="29496808#0" to="ramp1MergeTo" /><trip id="185" depart="55" from="29496808#0" to="ramp1MergeTo" /><trip id="186" depart="56" from="29496808#0" to="ramp1MergeTo" /><trip id="187" depart="56" from="29496808#0" to="ramp1MergeTo" /><trip id="188" depart="57" from="29496808#0" to="ramp1MergeTo" /><trip id="189" depart="57" from="29496808#0" to="ramp1MergeTo" /><trip id="190" depart="57" from="29496808#0" to="ramp1MergeTo" /><trip id="191" depart="57" from="29496808#0" to="ramp1MergeTo" /><trip id="192" depart="57" from="29496808#0" to="ramp1MergeTo" /><trip id="193" depart="57" from="29496808#0" to="ramp1MergeTo" /><trip id="194" depart="58" from="29496808#0" to="ramp1MergeTo" /><trip id="195" depart="58" from="29496808#0" to="ramp1MergeTo" /><trip id="196" depart="58" from="29496808#0" to="ramp1MergeTo" /><trip id="197" depart="59" from="830650862" to="ramp1MergeTo" /><trip id="198" depart="60" from="29496808#0" to="ramp1MergeTo" /><trip id="199" depart="60" from="29496808#0" to="ramp1MergeTo" /><trip id="200" depart="60" from="29496808#0" to="ramp1MergeTo" /><trip id="201" depart="61" from="29496808#0" to="ramp1MergeTo" /><trip id="202" depart="61" from="29496808#0" to="ramp1MergeTo" /><trip id="203" depart="61" from="29496808#0" to="ramp1MergeTo" /><trip id="204" depart="61" from="29496808#0" to="ramp1MergeTo" /><trip id="205" depart="61" from="29496808#0" to="ramp1MergeTo" /><trip id="206" depart="61" from="29496808#0" to="ramp1MergeTo" /><trip id="207" depart="61" from="29496808#0" to="ramp1MergeTo" /><trip id="208" depart="62" from="830650862" to="ramp1MergeTo" /><trip id="209" depart="62" from="29496808#0" to="ramp1MergeTo" /><trip id="210" depart="63" from="29496808#0" to="ramp1MergeTo" /><trip id="211" depart="63" from="29496808#0" to="ramp1MergeTo" /><trip id="212" depart="63" from="29496808#0" to="ramp1MergeTo" /><trip id="213" depart="64" from="830650862" to="ramp1MergeTo" /><trip id="214" depart="64" from="29496808#0" to="ramp1MergeTo" /><trip id="215" depart="65" from="29496808#0" to="ramp1MergeTo" /><trip id="216" depart="66" from="29496808#0" to="ramp1MergeTo" /><trip id="217" depart="66" from="29496808#0" to="ramp1MergeTo" /><trip id="218" depart="66" from="219823957" to="ramp1MergeTo" /><trip id="219" depart="66" from="29496808#0" to="ramp1MergeTo" /><trip id="220" depart="66" from="29496808#0" to="ramp1MergeTo" /><trip id="221" depart="66" from="29496808#0" to="ramp1MergeTo" /><trip id="222" depart="66" from="29496808#0" to="ramp1MergeTo" /><trip id="223" depart="67" from="830650862" to="ramp1MergeTo" /><trip id="224" depart="67" from="29496808#0" to="ramp1MergeTo" /><trip id="225" depart="67" from="830650862" to="ramp1MergeTo" /><trip id="226" depart="68" from="830650862" to="ramp1MergeTo" /><trip id="227" depart="68" from="29496808#0" to="ramp1MergeTo" /><trip id="228" depart="68" from="29496808#0" to="ramp1MergeTo" /><trip id="229" depart="69" from="29496808#0" to="ramp1MergeTo" /><trip id="230" depart="70" from="29496808#0" to="ramp1MergeTo" /><trip id="231" depart="70" from="830650862" to="ramp1MergeTo" /><trip id="232" depart="70" from="830650862" to="ramp1MergeTo" /><trip id="233" depart="70" from="29496808#0" to="ramp1MergeTo" /><trip id="234" depart="70" from="29496808#0" to="ramp1MergeTo" /><trip id="235" depart="71" from="29496808#0" to="ramp1MergeTo" /><trip id="236" depart="71" from="29496808#0" to="ramp1MergeTo" /><trip id="237" depart="72" from="219823957" to="ramp1MergeTo" /><trip id="238" depart="72" from="29496808#0" to="ramp1MergeTo" /><trip id="239" depart="72" from="29496808#0" to="ramp1MergeTo" /><trip id="240" depart="72" from="29496808#0" to="ramp1MergeTo" /><trip id="241" depart="72" from="29496808#0" to="ramp1MergeTo" /><trip id="242" depart="72" from="29496808#0" to="ramp1MergeTo" /><trip id="243" depart="73" from="29496808#0" to="ramp1MergeTo" /><trip id="244" depart="73" from="29496808#0" to="ramp1MergeTo" /><trip id="245" depart="73" from="29496808#0" to="ramp1MergeTo" /><trip id="246" depart="73" from="29496808#0" to="ramp1MergeTo" /><trip id="247" depart="74" from="29496808#0" to="ramp1MergeTo" /><trip id="248" depart="74" from="830650862" to="ramp1MergeTo" /><trip id="249" depart="75" from="29496808#0" to="ramp1MergeTo" /><trip id="250" depart="75" from="29496808#0" to="ramp1MergeTo" /><trip id="251" depart="76" from="29496808#0" to="ramp1MergeTo" /><trip id="252" depart="76" from="29496808#0" to="ramp1MergeTo" /><trip id="253" depart="76" from="29496808#0" to="ramp1MergeTo" /><trip id="254" depart="77" from="29496808#0" to="ramp1MergeTo" /><trip id="255" depart="77" from="830650862" to="ramp1MergeTo" /><trip id="256" depart="77" from="29496808#0" to="ramp1MergeTo" /><trip id="257" depart="78" from="29496808#0" to="ramp1MergeTo" /><trip id="258" depart="78" from="29496808#0" to="ramp1MergeTo" /><trip id="259" depart="79" from="29496808#0" to="ramp1MergeTo" /><trip id="260" depart="79" from="29496808#0" to="ramp1MergeTo" /><trip id="261" depart="80" from="29496808#0" to="ramp1MergeTo" /><trip id="262" depart="80" from="830650862" to="ramp1MergeTo" /><trip id="263" depart="80" from="29496808#0" to="ramp1MergeTo" /><trip id="264" depart="80" from="29496808#0" to="ramp1MergeTo" /><trip id="265" depart="81" from="29496808#0" to="ramp1MergeTo" /><trip id="266" depart="81" from="29496808#0" to="ramp1MergeTo" /><trip id="267" depart="81" from="219823957" to="ramp1MergeTo" /><trip id="268" depart="81" from="830650862" to="ramp1MergeTo" /><trip id="269" depart="82" from="29496808#0" to="ramp1MergeTo" /><trip id="270" depart="82" from="29496808#0" to="ramp1MergeTo" /><trip id="271" depart="82" from="29496808#0" to="ramp1MergeTo" /><trip id="272" depart="83" from="29496808#0" to="ramp1MergeTo" /><trip id="273" depart="83" from="29496808#0" to="ramp1MergeTo" /><trip id="274" depart="83" from="29496808#0" to="ramp1MergeTo" /><trip id="275" depart="83" from="29496808#0" to="ramp1MergeTo" /><trip id="276" depart="83" from="29496808#0" to="ramp1MergeTo" /><trip id="277" depart="83" from="29496808#0" to="ramp1MergeTo" /><trip id="278" depart="83" from="29496808#0" to="ramp1MergeTo" /><trip id="279" depart="84" from="29496808#0" to="ramp1MergeTo" /><trip id="280" depart="84" from="29496808#0" to="ramp1MergeTo" /><trip id="281" depart="84" from="29496808#0" to="ramp1MergeTo" /><trip id="282" depart="84" from="29496808#0" to="ramp1MergeTo" /><trip id="283" depart="85" from="29496808#0" to="ramp1MergeTo" /><trip id="284" depart="85" from="29496808#0" to="ramp1MergeTo" /><trip id="285" depart="85" from="29496808#0" to="ramp1MergeTo" /><trip id="286" depart="86" from="830650862" to="ramp1MergeTo" /><trip id="287" depart="86" from="29496808#0" to="ramp1MergeTo" /><trip id="288" depart="86" from="29496808#0" to="ramp1MergeTo" /><trip id="289" depart="86" from="29496808#0" to="ramp1MergeTo" /><trip id="290" depart="86" from="29496808#0" to="ramp1MergeTo" /><trip id="291" depart="87" from="219823957" to="ramp1MergeTo" /><trip id="292" depart="87" from="29496808#0" to="ramp1MergeTo" /><trip id="293" depart="87" from="29496808#0" to="ramp1MergeTo" /><trip id="294" depart="88" from="29496808#0" to="ramp1MergeTo" /><trip id="295" depart="88" from="29496808#0" to="ramp1MergeTo" /><trip id="296" depart="88" from="29496808#0" to="ramp1MergeTo" /><trip id="297" depart="89" from="29496808#0" to="ramp1MergeTo" /><trip id="298" depart="89" from="29496808#0" to="ramp1MergeTo" /><trip id="299" depart="89" from="29496808#0" to="ramp1MergeTo" /><trip id="300" depart="90" from="29496808#0" to="ramp1MergeTo" /><trip id="301" depart="90" from="29496808#0" to="ramp1MergeTo" /><trip id="302" depart="91" from="29496808#0" to="ramp1MergeTo" /><trip id="303" depart="91" from="219823957" to="ramp1MergeTo" /><trip id="304" depart="91" from="29496808#0" to="ramp1MergeTo" /><trip id="305" depart="92" from="830650862" to="ramp1MergeTo" /><trip id="306" depart="92" from="29496808#0" to="ramp1MergeTo" /><trip id="307" depart="92" from="29496808#0" to="ramp1MergeTo" /><trip id="308" depart="92" from="29496808#0" to="ramp1MergeTo" /><trip id="309" depart="93" from="29496808#0" to="ramp1MergeTo" /><trip id="310" depart="93" from="219823957" to="ramp1MergeTo" /><trip id="311" depart="93" from="29496808#0" to="ramp1MergeTo" /><trip id="312" depart="94" from="29496808#0" to="ramp1MergeTo" /><trip id="313" depart="94" from="29496808#0" to="ramp1MergeTo" /><trip id="314" depart="94" from="29496808#0" to="ramp1MergeTo" /><trip id="315" depart="94" from="29496808#0" to="ramp1MergeTo" /><trip id="316" depart="94" from="29496808#0" to="ramp1MergeTo" /><trip id="317" depart="94" from="29496808#0" to="ramp1MergeTo" /><trip id="318" depart="95" from="29496808#0" to="ramp1MergeTo" /><trip id="319" depart="96" from="29496808#0" to="ramp1MergeTo" /><trip id="320" depart="96" from="29496808#0" to="ramp1MergeTo" /><trip id="321" depart="96" from="29496808#0" to="ramp1MergeTo" /><trip id="322" depart="96" from="29496808#0" to="ramp1MergeTo" /><trip id="323" depart="97" from="29496808#0" to="ramp1MergeTo" /><trip id="324" depart="97" from="29496808#0" to="ramp1MergeTo" /><trip id="325" depart="97" from="29496808#0" to="ramp1MergeTo" /><trip id="326" depart="97" from="29496808#0" to="ramp1MergeTo" /><trip id="327" depart="98" from="29496808#0" to="ramp1MergeTo" /><trip id="328" depart="99" from="29496808#0" to="ramp1MergeTo" /><trip id="329" depart="99" from="29496808#0" to="ramp1MergeTo" /><trip id="330" depart="99" from="29496808#0" to="ramp1MergeTo" /><trip id="331" depart="100" from="29496808#0" to="ramp1MergeTo" /><trip id="332" depart="100" from="830650862" to="ramp1MergeTo" /><trip id="333" depart="100" from="29496808#0" to="ramp1MergeTo" /><trip id="334" depart="101" from="29496808#0" to="ramp1MergeTo" /><trip id="335" depart="101" from="29496808#0" to="ramp1MergeTo" /><trip id="336" depart="101" from="29496808#0" to="ramp1MergeTo" /><trip id="337" depart="101" from="29496808#0" to="ramp1MergeTo" /><trip id="338" depart="102" from="29496808#0" to="ramp1MergeTo" /><trip id="339" depart="102" from="29496808#0" to="ramp1MergeTo" /><trip id="340" depart="102" from="29496808#0" to="ramp1MergeTo" /><trip id="341" depart="103" from="29496808#0" to="ramp1MergeTo" /><trip id="342" depart="103" from="29496808#0" to="ramp1MergeTo" /><trip id="343" depart="103" from="29496808#0" to="ramp1MergeTo" /><trip id="344" depart="103" from="29496808#0" to="ramp1MergeTo" /><trip id="345" depart="104" from="219823957" to="ramp1MergeTo" /><trip id="346" depart="104" from="29496808#0" to="ramp1MergeTo" /><trip id="347" depart="104" from="830650862" to="ramp1MergeTo" /><trip id="348" depart="104" from="29496808#0" to="ramp1MergeTo" /><trip id="349" depart="105" from="29496808#0" to="ramp1MergeTo" /><trip id="350" depart="105" from="29496808#0" to="ramp1MergeTo" /><trip id="351" depart="105" from="29496808#0" to="ramp1MergeTo" /><trip id="352" depart="105" from="29496808#0" to="ramp1MergeTo" /><trip id="353" depart="105" from="29496808#0" to="ramp1MergeTo" /><trip id="354" depart="105" from="29496808#0" to="ramp1MergeTo" /><trip id="355" depart="105" from="29496808#0" to="ramp1MergeTo" /><trip id="356" depart="106" from="29496808#0" to="ramp1MergeTo" /><trip id="357" depart="106" from="29496808#0" to="ramp1MergeTo" /><trip id="358" depart="106" from="29496808#0" to="ramp1MergeTo" /><trip id="359" depart="106" from="219823957" to="ramp1MergeTo" /><trip id="360" depart="106" from="29496808#0" to="ramp1MergeTo" /><trip id="361" depart="106" from="29496808#0" to="ramp1MergeTo" /><trip id="362" depart="107" from="29496808#0" to="ramp1MergeTo" /><trip id="363" depart="107" from="29496808#0" to="ramp1MergeTo" /><trip id="364" depart="108" from="29496808#0" to="ramp1MergeTo" /><trip id="365" depart="108" from="29496808#0" to="ramp1MergeTo" /><trip id="366" depart="108" from="29496808#0" to="ramp1MergeTo" /><trip id="367" depart="109" from="29496808#0" to="ramp1MergeTo" /><trip id="368" depart="109" from="29496808#0" to="ramp1MergeTo" /><trip id="369" depart="109" from="219823957" to="ramp1MergeTo" /><trip id="370" depart="109" from="29496808#0" to="ramp1MergeTo" /><trip id="371" depart="110" from="830650862" to="ramp1MergeTo" /><trip id="372" depart="110" from="29496808#0" to="ramp1MergeTo" /><trip id="373" depart="110" from="219823957" to="ramp1MergeTo" /><trip id="374" depart="111" from="29496808#0" to="ramp1MergeTo" /><trip id="375" depart="111" from="29496808#0" to="ramp1MergeTo" /><trip id="376" depart="111" from="29496808#0" to="ramp1MergeTo" /><trip id="377" depart="113" from="29496808#0" to="ramp1MergeTo" /><trip id="378" depart="113" from="29496808#0" to="ramp1MergeTo" /><trip id="379" depart="115" from="830650862" to="ramp1MergeTo" /><trip id="380" depart="116" from="29496808#0" to="ramp1MergeTo" /><trip id="381" depart="116" from="29496808#0" to="ramp1MergeTo" /><trip id="382" depart="116" from="29496808#0" to="ramp1MergeTo" /><trip id="383" depart="116" from="29496808#0" to="ramp1MergeTo" /><trip id="384" depart="117" from="29496808#0" to="ramp1MergeTo" /><trip id="385" depart="117" from="219823957" to="ramp1MergeTo" /><trip id="386" depart="117" from="29496808#0" to="ramp1MergeTo" /><trip id="387" depart="118" from="29496808#0" to="ramp1MergeTo" /><trip id="388" depart="118" from="29496808#0" to="ramp1MergeTo" /><trip id="389" depart="118" from="29496808#0" to="ramp1MergeTo" /><trip id="390" depart="118" from="29496808#0" to="ramp1MergeTo" /><trip id="391" depart="118" from="29496808#0" to="ramp1MergeTo" /><trip id="392" depart="119" from="29496808#0" to="ramp1MergeTo" /><trip id="393" depart="120" from="29496808#0" to="ramp1MergeTo" /><trip id="394" depart="120" from="830650862" to="ramp1MergeTo" /><trip id="395" depart="120" from="29496808#0" to="ramp1MergeTo" /><trip id="396" depart="121" from="29496808#0" to="ramp1MergeTo" /><trip id="397" depart="121" from="29496808#0" to="ramp1MergeTo" /><trip id="398" depart="121" from="219823957" to="ramp1MergeTo" /><trip id="399" depart="121" from="29496808#0" to="ramp1MergeTo" /><trip id="400" depart="122" from="29496808#0" to="ramp1MergeTo" /><trip id="401" depart="122" from="29496808#0" to="ramp1MergeTo" /><trip id="402" depart="123" from="29496808#0" to="ramp1MergeTo" /><trip id="403" depart="123" from="29496808#0" to="ramp1MergeTo" /><trip id="404" depart="123" from="29496808#0" to="ramp1MergeTo" /><trip id="405" depart="124" from="29496808#0" to="ramp1MergeTo" /><trip id="406" depart="124" from="29496808#0" to="ramp1MergeTo" /><trip id="407" depart="124" from="29496808#0" to="ramp1MergeTo" /><trip id="408" depart="124" from="219823957" to="ramp1MergeTo" /><trip id="409" depart="125" from="29496808#0" to="ramp1MergeTo" /><trip id="410" depart="125" from="29496808#0" to="ramp1MergeTo" /><trip id="411" depart="125" from="29496808#0" to="ramp1MergeTo" /><trip id="412" depart="126" from="29496808#0" to="ramp1MergeTo" /><trip id="413" depart="126" from="29496808#0" to="ramp1MergeTo" /><trip id="414" depart="126" from="29496808#0" to="ramp1MergeTo" /><trip id="415" depart="126" from="29496808#0" to="ramp1MergeTo" /><trip id="416" depart="126" from="830650862" to="ramp1MergeTo" /><trip id="417" depart="127" from="29496808#0" to="ramp1MergeTo" /><trip id="418" depart="128" from="29496808#0" to="ramp1MergeTo" /><trip id="419" depart="128" from="29496808#0" to="ramp1MergeTo" /><trip id="420" depart="129" from="29496808#0" to="ramp1MergeTo" /><trip id="421" depart="129" from="219823957" to="ramp1MergeTo" /><trip id="422" depart="130" from="29496808#0" to="ramp1MergeTo" /><trip id="423" depart="130" from="830650862" to="ramp1MergeTo" /><trip id="424" depart="130" from="29496808#0" to="ramp1MergeTo" /><trip id="425" depart="130" from="29496808#0" to="ramp1MergeTo" /><trip id="426" depart="131" from="29496808#0" to="ramp1MergeTo" /><trip id="427" depart="131" from="29496808#0" to="ramp1MergeTo" /><trip id="428" depart="131" from="29496808#0" to="ramp1MergeTo" /><trip id="429" depart="132" from="830650862" to="ramp1MergeTo" /><trip id="430" depart="132" from="830650862" to="ramp1MergeTo" /><trip id="431" depart="133" from="830650862" to="ramp1MergeTo" /><trip id="432" depart="133" from="29496808#0" to="ramp1MergeTo" /><trip id="433" depart="134" from="29496808#0" to="ramp1MergeTo" /><trip id="434" depart="134" from="219823957" to="ramp1MergeTo" /><trip id="435" depart="134" from="29496808#0" to="ramp1MergeTo" /><trip id="436" depart="134" from="29496808#0" to="ramp1MergeTo" /><trip id="437" depart="135" from="29496808#0" to="ramp1MergeTo" /><trip id="438" depart="135" from="29496808#0" to="ramp1MergeTo" /><trip id="439" depart="135" from="29496808#0" to="ramp1MergeTo" /><trip id="440" depart="135" from="830650862" to="ramp1MergeTo" /><trip id="441" depart="136" from="219823957" to="ramp1MergeTo" /><trip id="442" depart="136" from="29496808#0" to="ramp1MergeTo" /><trip id="443" depart="136" from="29496808#0" to="ramp1MergeTo" /><trip id="444" depart="136" from="29496808#0" to="ramp1MergeTo" /><trip id="445" depart="137" from="219823957" to="ramp1MergeTo" /><trip id="446" depart="137" from="29496808#0" to="ramp1MergeTo" /><trip id="447" depart="137" from="29496808#0" to="ramp1MergeTo" /><trip id="448" depart="137" from="29496808#0" to="ramp1MergeTo" /><trip id="449" depart="137" from="219823957" to="ramp1MergeTo" /><trip id="450" depart="138" from="29496808#0" to="ramp1MergeTo" /><trip id="451" depart="138" from="219823957" to="ramp1MergeTo" /><trip id="452" depart="138" from="29496808#0" to="ramp1MergeTo" /><trip id="453" depart="138" from="29496808#0" to="ramp1MergeTo" /><trip id="454" depart="138" from="29496808#0" to="ramp1MergeTo" /><trip id="455" depart="139" from="29496808#0" to="ramp1MergeTo" /><trip id="456" depart="139" from="29496808#0" to="ramp1MergeTo" /><trip id="457" depart="140" from="29496808#0" to="ramp1MergeTo" /><trip id="458" depart="140" from="830650862" to="ramp1MergeTo" /><trip id="459" depart="140" from="29496808#0" to="ramp1MergeTo" /><trip id="460" depart="140" from="29496808#0" to="ramp1MergeTo" /><trip id="461" depart="141" from="29496808#0" to="ramp1MergeTo" /><trip id="462" depar