<?xml version="1.0" encoding="UTF-8"?>

<!-- generated on 2023-11-02 17:18:14 by Eclipse SUMO netconvert Version 1.18.0
<configuration xmlns:xsi="http://www.w3.org/2001/XMLSchema-instance" xsi:noNamespaceSchemaLocation="http://sumo.dlr.de/xsd/netconvertConfiguration.xsd">

    <input>
        <type-files value="osmNetconvert.typ.xml"/>
        <osm-files value="guangshen2.osm"/>
    </input>

    <output>
        <output-file value="guangshen2.net.xml"/>
    </output>

    <projection>
        <proj.utm value="true"/>
    </projection>

    <report>
        <xml-validation value="never"/>
    </report>

</configuration>
-->

<net version="1.16" junctionCornerDetail="5" limitTurnSpeed="5.50" xmlns:xsi="http://www.w3.org/2001/XMLSchema-instance" xsi:noNamespaceSchemaLocation="http://sumo.dlr.de/xsd/net_file.xsd">

    <location netOffset="-775749.66,-2523393.84" convBoundary="0.00,0.00,8876.22,5826.52" origBoundary="113.686929,22.795409,113.772896,22.847616" projParameter="+proj=utm +zone=49 +ellps=WGS84 +datum=WGS84 +units=m +no_defs"/>

    <type id="highway.footway" priority="1" numLanes="1" speed="2.78" allow="pedestrian" oneway="1" width="2.00"/>
    <type id="highway.motorway" priority="14" numLanes="2" speed="39.44" allow="private emergency authority army vip passenger hov taxi bus coach delivery truck trailer motorcycle evehicle custom1 custom2" oneway="1"/>
    <type id="highway.primary" priority="12" numLanes="2" speed="27.78" disallow="tram rail_urban rail rail_electric rail_fast ship" oneway="0"/>
    <type id="highway.residential" priority="3" numLanes="1" speed="13.89" disallow="tram rail_urban rail rail_electric rail_fast ship" oneway="0"/>
    <type id="highway.secondary" priority="11" numLanes="1" speed="27.78" disallow="tram rail_urban rail rail_electric rail_fast ship" oneway="0"/>
    <type id="highway.tertiary" priority="10" numLanes="1" speed="22.22" disallow="tram rail_urban rail rail_electric rail_fast ship" oneway="0"/>
    <type id="highway.unclassified" priority="4" numLanes="1" speed="13.89" disallow="tram rail_urban rail rail_electric rail_fast ship" oneway="0"/>

    <edge id=":10250411227_0" function="internal">
        <lane id=":10250411227_0_0" index="0" disallow="tram rail_urban rail rail_electric rail_fast ship" speed="5.77" length="9.16" shape="3061.39,4251.29 3058.77,4250.60 3056.95,4251.03 3055.90,4252.59 3055.64,4255.28"/>
    </edge>
    <edge id=":10250411227_1" function="internal">
        <lane id=":10250411227_1_0" index="0" disallow="tram rail_urban rail rail_electric rail_fast ship" speed="22.22" length="12.28" shape="3061.39,4251.29 3050.06,4246.53"/>
    </edge>
    <edge id=":10250411227_2" function="internal">
        <lane id=":10250411227_2_0" index="0" disallow="tram rail_urban rail rail_electric rail_fast ship" speed="3.65" length="4.67" shape="3061.39,4251.29 3060.59,4250.09 3060.53,4249.20 3061.21,4248.62 3062.63,4248.35"/>
    </edge>
    <edge id=":10250411227_3" function="internal">
        <lane id=":10250411227_3_0" index="0" disallow="tram rail_urban rail rail_electric rail_fast ship" speed="9.26" length="12.98" shape="3055.03,4238.75 3055.58,4241.78 3057.04,4244.39 3059.38,4246.58 3062.63,4248.35"/>
    </edge>
    <edge id=":10250411227_4" function="internal">
        <lane id=":10250411227_4_0" index="0" disallow="tram rail_urban rail rail_electric rail_fast ship" speed="27.78" length="16.55" shape="3055.03,4238.75 3055.64,4255.28"/>
    </edge>
    <edge id=":10250411227_5" function="internal">
        <lane id=":10250411227_5_0" index="0" disallow="tram rail_urban rail rail_electric rail_fast ship" speed="6.36" length="11.41" shape="3055.03,4238.75 3054.84,4242.99 3053.95,4245.70 3052.36,4246.88 3050.06,4246.53"/>
    </edge>
    <edge id=":10250411227_6" function="internal">
        <lane id=":10250411227_6_0" index="0" disallow="tram rail_urban rail rail_electric rail_fast ship" speed="22.22" length="12.29" shape="3051.30,4243.58 3062.63,4248.35"/>
    </edge>
    <edge id=":10250411227_7" function="internal">
        <lane id=":10250411227_7_0" index="0" disallow="tram rail_urban rail rail_electric rail_fast ship" speed="9.31" length="13.01" shape="3051.30,4243.58 3053.05,4244.94 3054.35,4247.33 3055.22,4250.78 3055.64,4255.28"/>
    </edge>
    <edge id=":10250411227_8" function="internal">
        <lane id=":10250411227_8_0" index="0" disallow="tram rail_urban rail rail_electric rail_fast ship" speed="3.65" length="4.67" shape="3051.30,4243.58 3052.10,4244.79 3052.16,4245.68 3051.48,4246.26 3050.06,4246.53"/>
    </edge>
    <edge id=":1927687920_0" function="internal">
        <lane id=":1927687920_0_0" index="0" disallow="tram rail_urban rail rail_electric rail_fast ship" speed="22.22" length="8.98" shape="2885.32,2520.45 2879.43,2527.23"/>
    </edge>
    <edge id=":1927687920_1" function="internal">
        <lane id=":1927687920_1_0" index="0" disallow="tram rail_urban rail rail_electric rail_fast ship" speed="3.65" length="4.67" shape="2885.32,2520.45 2883.93,2520.83 2883.06,2520.61 2882.72,2519.78 2882.90,2518.35"/>
    </edge>
    <edge id=":1927687920_2" function="internal">
        <lane id=":1927687920_2_0" index="0" disallow="tram rail_urban rail rail_electric rail_fast ship" speed="7.07" length="7.91" shape="2875.59,2519.50 2877.83,2520.10 2879.80,2520.11 2881.49,2519.53 2882.90,2518.35"/>
    </edge>
    <edge id=":1927687920_3" function="internal">
        <lane id=":1927687920_3_0" index="0" disallow="tram rail_urban rail rail_electric rail_fast ship" speed="6.32" length="10.76" shape="2875.59,2519.50 2878.81,2521.11 2880.52,2522.93 2880.73,2524.97 2879.43,2527.23"/>
    </edge>
    <edge id=":1927687920_4" function="internal">
        <lane id=":1927687920_4_0" index="0" disallow="tram rail_urban rail rail_electric rail_fast ship" speed="22.22" length="8.98" shape="2877.01,2525.13 2882.90,2518.35"/>
    </edge>
    <edge id=":1927687920_5" function="internal">
        <lane id=":1927687920_5_0" index="0" disallow="tram rail_urban rail rail_electric rail_fast ship" speed="3.65" length="4.67" shape="2877.01,2525.13 2878.41,2524.75 2879.27,2524.97 2879.61,2525.80 2879.43,2527.23"/>
    </edge>
    <edge id=":1929457714_0" function="internal">
        <lane id=":1929457714_0_0" index="0" allow="private emergency authority army vip passenger hov taxi bus coach delivery truck trailer motorcycle evehicle custom1 custom2" speed="39.44" length="0.30" shape="6161.33,2068.31 6161.07,2068.38"/>
        <lane id=":1929457714_0_1" index="1" allow="private emergency authority army vip passenger hov taxi bus coach delivery truck trailer motorcycle evehicle custom1 custom2" speed="39.44" length="0.30" shape="6160.58,2065.20 6160.29,2065.27"/>
        <lane id=":1929457714_0_2" index="2" allow="private emergency authority army vip passenger hov taxi bus coach delivery truck trailer motorcycle evehicle custom1 custom2" speed="39.44" length="0.30" shape="6159.83,2062.09 6159.51,2062.17"/>
    </edge>
    <edge id=":1929457801_0" function="internal">
        <lane id=":1929457801_0_0" index="0" allow="private emergency authority army vip passenger hov taxi bus coach delivery truck trailer motorcycle evehicle custom1 custom2" speed="39.44" length="0.30" shape="6165.09,2044.74 6165.35,2044.67"/>
        <lane id=":1929457801_0_1" index="1" allow="private emergency authority army vip passenger hov taxi bus coach delivery truck trailer motorcycle evehicle custom1 custom2" speed="39.44" length="0.30" shape="6165.86,2047.84 6166.14,2047.77"/>
        <lane id=":1929457801_0_2" index="2" allow="private emergency authority army vip passenger hov taxi bus coach delivery truck trailer motorcycle evehicle custom1 custom2" speed="39.44" length="0.30" shape="6166.63,2050.95 6166.94,2050.87"/>
    </edge>
    <edge id=":279959822_0" function="internal">
        <lane id=":279959822_0_0" index="0" allow="private emergency authority army vip passenger hov taxi bus coach delivery truck trailer motorcycle evehicle custom1 custom2" speed="39.44" length="8.04" shape="5129.84,2341.80 5127.64,2342.59 5126.29,2343.52 5124.96,2344.53 5122.83,2345.54"/>
        <lane id=":279959822_0_1" index="1" allow="private emergency authority army vip passenger hov taxi bus coach delivery truck trailer motorcycle evehicle custom1 custom2" speed="39.44" length="8.04" shape="5128.85,2338.75 5126.62,2339.55 5125.26,2340.49 5123.91,2341.50 5121.76,2342.52"/>
    </edge>
    <edge id=":279959822_2" function="internal">
        <lane id=":279959822_2_0" index="0" allow="private emergency authority army vip passenger hov taxi bus coach delivery truck trailer motorcycle evehicle custom1 custom2" speed="39.44" length="7.91" shape="5130.23,2343.02 5122.83,2345.54"/>
        <lane id=":279959822_2_1" index="1" allow="private emergency authority army vip passenger hov taxi bus coach delivery truck trailer motorcycle evehicle custom1 custom2" speed="39.44" length="7.91" shape="5129.24,2339.98 5121.76,2342.52"/>
        <lane id=":279959822_2_2" index="2" allow="private emergency authority army vip passenger hov taxi bus coach delivery truck trailer motorcycle evehicle custom1 custom2" speed="39.44" length="7.91" shape="5128.26,2336.93 5120.69,2339.50"/>
    </edge>
    <edge id=":279959828_0" function="internal">
        <lane id=":279959828_0_0" index="0" allow="private emergency authority army vip passenger hov taxi bus coach delivery truck trailer motorcycle evehicle custom1 custom2" speed="39.44" length="2.98" shape="2976.35,3178.77 2973.58,3179.93"/>
        <lane id=":279959828_0_1" index="1" allow="private emergency authority army vip passenger hov taxi bus coach delivery truck trailer motorcycle evehicle custom1 custom2" speed="39.44" length="2.98" shape="2975.11,3175.82 2972.36,3176.97"/>
        <lane id=":279959828_0_2" index="2" allow="private emergency authority army vip passenger hov taxi bus coach delivery truck trailer motorcycle evehicle custom1 custom2" speed="39.44" length="2.98" shape="2973.87,3172.87 2971.14,3174.01"/>
    </edge>
    <edge id=":279959828_3" function="internal">
        <lane id=":279959828_3_0" index="0" allow="private emergency authority army vip passenger hov taxi bus coach delivery truck trailer motorcycle evehicle custom1 custom2" speed="39.44" length="4.71" shape="2973.87,3172.87 2973.53,3179.80"/>
        <lane id=":279959828_3_1" index="1" allow="private emergency authority army vip passenger hov taxi bus coach delivery truck trailer motorcycle evehicle custom1 custom2" speed="39.44" length="4.71" shape="2973.87,3172.87 2972.31,3176.83"/>
        <lane id=":279959828_3_2" index="2" allow="private emergency authority army vip passenger hov taxi bus coach delivery truck trailer motorcycle evehicle custom1 custom2" speed="39.44" length="4.71" shape="2973.87,3172.87 2973.06,3173.21 2972.49,3173.42 2971.92,3173.60 2971.08,3173.86"/>
    </edge>
    <edge id=":279961313_0" function="internal">
        <lane id=":279961313_0_0" index="0" allow="private emergency authority army vip passenger hov taxi bus coach delivery truck trailer motorcycle evehicle custom1 custom2" speed="39.44" length="0.10" shape="5655.86,2132.78 5655.78,2132.82"/>
        <lane id=":279961313_0_1" index="1" allow="private emergency authority army vip passenger hov taxi bus coach delivery truck trailer motorcycle evehicle custom1 custom2" speed="39.44" length="0.10" shape="5657.17,2135.70 5657.26,2135.66"/>
    </edge>
    <edge id=":279961319_0" function="internal">
        <lane id=":279961319_0_0" index="0" allow="private emergency authority army vip passenger hov taxi bus coach delivery truck trailer motorcycle evehicle custom1 custom2" speed="39.44" length="0.10" shape="6211.42,2002.46 6211.51,2002.50"/>
        <lane id=":279961319_0_1" index="1" allow="private emergency authority army vip passenger hov taxi bus coach delivery truck trailer motorcycle evehicle custom1 custom2" speed="39.44" length="0.10" shape="6210.36,2005.48 6210.27,2005.44"/>
    </edge>
    <edge id=":279961320_0" function="internal">
        <lane id=":279961320_0_0" index="0" allow="private emergency authority army vip passenger hov taxi bus coach delivery truck trailer motorcycle evehicle custom1 custom2" speed="39.44" length="0.30" shape="6303.98,2044.53 6304.24,2044.70"/>
        <lane id=":279961320_0_1" index="1" allow="private emergency authority army vip passenger hov taxi bus coach delivery truck trailer motorcycle evehicle custom1 custom2" speed="39.44" length="0.30" shape="6302.30,2047.26 6302.54,2047.41"/>
    </edge>
    <edge id=":294974392_0" function="internal">
        <lane id=":294974392_0_0" index="0" allow="private emergency authority army vip passenger hov taxi bus coach delivery truck trailer motorcycle evehicle custom1 custom2" speed="39.44" length="3.17" shape="2843.77,3183.58 2846.67,3182.51"/>
        <lane id=":294974392_0_1" index="1" allow="private emergency authority army vip passenger hov taxi bus coach delivery truck trailer motorcycle evehicle custom1 custom2" speed="39.44" length="3.17" shape="2844.84,3186.59 2847.81,3185.50"/>
        <lane id=":294974392_0_2" index="2" allow="private emergency authority army vip passenger hov taxi bus coach delivery truck trailer motorcycle evehicle custom1 custom2" speed="39.44" length="3.17" shape="2845.90,3189.61 2848.95,3188.49"/>
    </edge>
    <edge id=":294974392_3" function="internal">
        <lane id=":294974392_3_0" index="0" allow="private emergency authority army vip passenger hov taxi bus coach delivery truck trailer motorcycle evehicle custom1 custom2" speed="39.44" length="3.17" shape="2843.79,3183.63 2846.67,3182.51"/>
        <lane id=":294974392_3_1" index="1" allow="private emergency authority army vip passenger hov taxi bus coach delivery truck trailer motorcycle evehicle custom1 custom2" speed="39.44" length="3.17" shape="2844.86,3186.65 2847.81,3185.50"/>
        <lane id=":294974392_3_2" index="2" allow="private emergency authority army vip passenger hov taxi bus coach delivery truck trailer motorcycle evehicle custom1 custom2" speed="39.44" length="3.17" shape="2845.92,3189.67 2848.95,3188.49"/>
    </edge>
    <edge id=":3302529635_0" function="internal">
        <lane id=":3302529635_0_0" index="0" disallow="tram rail_urban rail rail_electric rail_fast ship" speed="27.78" length="0.29" shape="1763.08,4277.98 1762.77,4278.02"/>
        <lane id=":3302529635_0_1" index="1" disallow="tram rail_urban rail rail_electric rail_fast ship" speed="27.78" length="0.29" shape="1762.58,4274.82 1762.31,4274.86"/>
    </edge>
    <edge id=":3302529636_0" function="internal">
        <lane id=":3302529636_0_0" index="0" disallow="tram rail_urban rail rail_electric rail_fast ship" speed="27.78" length="0.28" shape="1750.48,4279.80 1750.17,4279.84"/>
        <lane id=":3302529636_0_1" index="1" disallow="tram rail_urban rail rail_electric rail_fast ship" speed="27.78" length="0.28" shape="1750.02,4276.63 1749.78,4276.67"/>
    </edge>
    <edge id=":3307617605_0" function="internal">
        <lane id=":3307617605_0_0" index="0" disallow="tram rail_urban rail rail_electric rail_fast ship" speed="27.78" length="11.49" shape="4778.37,1305.55 4771.37,1314.60"/>
        <lane id=":3307617605_0_1" index="1" disallow="tram rail_urban rail rail_electric rail_fast ship" speed="27.78" length="11.49" shape="4775.86,1303.56 4768.80,1312.70"/>
    </edge>
    <edge id=":3307617605_2" function="internal">
        <lane id=":3307617605_2_0" index="0" disallow="tram rail_urban rail rail_electric rail_fast ship" speed="8.01" length="12.04" shape="4769.20,1303.77 4771.43,1306.78 4772.54,1309.59 4772.52,1312.20 4771.37,1314.60"/>
        <lane id=":3307617605_2_1" index="1" disallow="tram rail_urban rail rail_electric rail_fast ship" speed="6.50" length="7.63" shape="4766.82,1305.91 4768.39,1307.94 4769.24,1309.75 4769.38,1311.33 4768.80,1312.70"/>
    </edge>
    <edge id=":3395403610_0" function="internal">
        <lane id=":3395403610_0_0" index="0" disallow="tram rail_urban rail rail_electric rail_fast ship" speed="3.65" length="4.67" shape="2537.46,3128.39 2536.34,3129.29 2535.46,3129.44 2534.81,3128.81 2534.41,3127.43"/>
    </edge>
    <edge id=":3650468982_0" function="internal">
        <lane id=":3650468982_0_0" index="0" disallow="tram rail_urban rail rail_electric rail_fast ship" speed="3.65" length="4.67" shape="5932.85,3505.34 5934.04,3506.16 5934.43,3506.97 5934.01,3507.76 5932.80,3508.54"/>
    </edge>
    <edge id=":3650469743_0" function="internal">
        <lane id=":3650469743_0_0" index="0" disallow="tram rail_urban rail rail_electric rail_fast ship" speed="7.46" length="10.22" shape="3564.60,3454.29 3561.60,3454.57 3559.29,3455.51 3557.66,3457.10 3556.73,3459.35"/>
    </edge>
    <edge id=":3650469743_1" function="internal">
        <lane id=":3650469743_1_0" index="0" disallow="tram rail_urban rail rail_electric rail_fast ship" speed="3.65" length="4.67" shape="3564.60,3454.29 3563.41,3453.47 3563.02,3452.67 3563.43,3451.87 3564.65,3451.09"/>
    </edge>
    <edge id=":3650469743_2" function="internal">
        <lane id=":3650469743_2_0" index="0" disallow="tram rail_urban rail rail_electric rail_fast ship" speed="6.09" length="9.06" shape="3560.02,3445.17 3559.80,3447.73 3560.50,3449.57 3562.11,3450.69 3564.65,3451.09"/>
    </edge>
    <edge id=":3650469743_3" function="internal">
        <lane id=":3650469743_3_0" index="0" disallow="tram rail_urban rail rail_electric rail_fast ship" speed="27.78" length="14.56" shape="3560.02,3445.17 3556.73,3459.35"/>
        <lane id=":3650469743_3_1" index="1" disallow="tram rail_urban rail rail_electric rail_fast ship" speed="27.78" length="14.56" shape="3556.90,3444.45 3553.61,3458.63"/>
    </edge>
    <edge id=":3650469763_0" function="internal">
        <lane id=":3650469763_0_0" index="0" disallow="tram rail_urban rail rail_electric rail_fast ship" speed="3.65" length="4.67" shape="3813.91,1317.03 3815.22,1316.42 3816.11,1316.50 3816.58,1317.26 3816.63,1318.70"/>
    </edge>
    <edge id=":3650469793_0" function="internal">
        <lane id=":3650469793_0_0" index="0" disallow="tram rail_urban rail rail_electric rail_fast ship" speed="18.05" length="0.38" shape="3540.11,1768.07 3539.90,1768.39"/>
    </edge>
    <edge id=":3650469793_1" function="internal">
        <lane id=":3650469793_1_0" index="0" disallow="tram rail_urban rail rail_electric rail_fast ship" speed="18.05" length="0.13" shape="3537.32,1766.50 3537.39,1766.39"/>
    </edge>
    <edge id=":3659094279_0" function="internal">
        <lane id=":3659094279_0_0" index="0" disallow="tram rail_urban rail rail_electric rail_fast ship" speed="27.78" length="0.31" shape="1766.68,4257.06 1766.73,4257.06 1766.76,4257.06 1766.79,4257.05 1766.84,4257.04"/>
        <lane id=":3659094279_0_1" index="1" disallow="tram rail_urban rail rail_electric rail_fast ship" speed="27.78" length="0.31" shape="1766.96,4260.25 1767.09,4260.24 1767.19,4260.23 1767.28,4260.21 1767.42,4260.19"/>
    </edge>
    <edge id=":3659094293_0" function="internal">
        <lane id=":3659094293_0_0" index="0" disallow="tram rail_urban rail rail_electric rail_fast ship" speed="5.96" length="9.09" shape="4757.16,1288.94 4758.95,1290.84 4760.77,1291.49 4762.61,1290.91 4764.48,1289.08"/>
        <lane id=":3659094293_0_1" index="1" disallow="tram rail_urban rail rail_electric rail_fast ship" speed="7.57" length="15.48" shape="4754.55,1290.80 4757.61,1294.02 4760.71,1295.14 4763.84,1294.14 4767.02,1291.02"/>
    </edge>
    <edge id=":3659094293_2" function="internal">
        <lane id=":3659094293_2_0" index="0" disallow="tram rail_urban rail rail_electric rail_fast ship" speed="27.78" length="16.45" shape="4754.55,1290.80 4757.74,1294.42 4760.55,1296.33 4763.49,1298.12 4767.09,1301.42"/>
        <lane id=":3659094293_2_1" index="1" disallow="tram rail_urban rail rail_electric rail_fast ship" speed="27.78" length="16.45" shape="4754.55,1290.80 4757.36,1294.74 4759.36,1297.40 4761.49,1299.94 4764.71,1303.56"/>
    </edge>
    <edge id=":3659094293_4" function="internal">
        <lane id=":3659094293_4_0" index="0" disallow="tram rail_urban rail rail_electric rail_fast ship" speed="27.78" length="13.16" shape="4756.45,1299.49 4764.48,1289.08"/>
        <lane id=":3659094293_4_1" index="1" disallow="tram rail_urban rail rail_electric rail_fast ship" speed="27.78" length="13.16" shape="4758.97,1301.46 4767.02,1291.02"/>
    </edge>
    <edge id=":3659094293_6" function="internal">
        <lane id=":3659094293_6_0" index="0" disallow="tram rail_urban rail rail_electric rail_fast ship" speed="5.49" length="6.96" shape="4758.97,1301.46 4760.00,1300.73 4761.30,1300.84 4762.87,1301.78 4764.71,1303.56"/>
    </edge>
    <edge id=":3659094299_0" function="internal">
        <lane id=":3659094299_0_0" index="0" disallow="tram rail_urban rail rail_electric rail_fast ship" speed="27.78" length="8.05" shape="3044.64,4056.10 3052.48,4055.04"/>
        <lane id=":3659094299_0_1" index="1" disallow="tram rail_urban rail rail_electric rail_fast ship" speed="27.78" length="8.05" shape="3044.89,4059.29 3053.00,4058.20"/>
    </edge>
    <edge id=":3659094299_2" function="internal">
        <lane id=":3659094299_2_0" index="0" disallow="tram rail_urban rail rail_electric rail_fast ship" speed="5.83" length="6.81" shape="3044.89,4059.29 3046.16,4059.53 3047.17,4060.46 3047.90,4062.08 3048.36,4064.39"/>
    </edge>
    <edge id=":3659094632_0" function="internal">
        <lane id=":3659094632_0_0" index="0" disallow="tram rail_urban rail rail_electric rail_fast ship" speed="10.29" length="7.75" shape="3783.48,2405.36 3785.48,2404.18 3786.94,2403.35 3788.02,2402.24 3788.89,2400.22"/>
    </edge>
    <edge id=":3659094632_1" function="internal">
        <lane id=":3659094632_1_0" index="0" disallow="tram rail_urban rail rail_electric rail_fast ship" speed="27.78" length="7.78" shape="3786.74,2407.73 3788.89,2400.22"/>
        <lane id=":3659094632_1_1" index="1" disallow="tram rail_urban rail rail_electric rail_fast ship" speed="27.78" length="7.78" shape="3789.82,2408.61 3791.95,2401.16"/>
    </edge>
    <edge id=":3659094642_0" function="internal">
        <lane id=":3659094642_0_0" index="0" disallow="tram rail_urban rail rail_electric rail_fast ship" speed="25.00" length="15.84" shape="3761.92,2494.58 3762.74,2489.61 3762.68,2485.74 3762.16,2482.36 3761.61,2478.89"/>
    </edge>
    <edge id=":3659094642_1" function="internal">
        <lane id=":3659094642_1_0" index="0" disallow="tram rail_urban rail rail_electric rail_fast ship" speed="27.78" length="15.86" shape="3761.92,2494.58 3766.30,2479.27"/>
        <lane id=":3659094642_1_1" index="1" disallow="tram rail_urban rail rail_electric rail_fast ship" speed="27.78" length="15.86" shape="3765.03,2495.34 3769.37,2480.15"/>
    </edge>
    <edge id=":3659094675_0" function="internal">
        <lane id=":3659094675_0_0" index="0" disallow="tram rail_urban rail rail_electric rail_fast ship" speed="27.78" length="0.26" shape="1752.74,4258.25 1752.96,4258.23"/>
        <lane id=":3659094675_0_1" index="1" disallow="tram rail_urban rail rail_electric rail_fast ship" speed="27.78" length="0.26" shape="1752.92,4261.44 1753.23,4261.42"/>
    </edge>
    <edge id=":3663250301_0" function="internal">
        <lane id=":3663250301_0_0" index="0" disallow="tram rail_urban rail rail_electric rail_fast ship" speed="6.01" length="9.08" shape="3221.30,2142.62 3219.88,2144.78 3219.64,2146.71 3220.59,2148.41 3222.73,2149.88"/>
    </edge>
    <edge id=":3663250301_1" function="internal">
        <lane id=":3663250301_1_0" index="0" disallow="tram rail_urban rail rail_electric rail_fast ship" speed="22.22" length="12.49" shape="3221.30,2142.62 3213.03,2151.97"/>
    </edge>
    <edge id=":3663250301_2" function="internal">
        <lane id=":3663250301_2_0" index="0" disallow="tram rail_urban rail rail_electric rail_fast ship" speed="3.65" length="1.44" shape="3221.30,2142.62 3219.91,2142.99"/>
    </edge>
    <edge id=":3663250301_9" function="internal">
        <lane id=":3663250301_9_0" index="0" disallow="tram rail_urban rail rail_electric rail_fast ship" speed="3.65" length="3.23" shape="3219.91,2142.99 3219.05,2142.75 3218.71,2141.93 3218.91,2140.50"/>
    </edge>
    <edge id=":3663250301_3" function="internal">
        <lane id=":3663250301_3_0" index="0" disallow="tram rail_urban rail rail_electric rail_fast ship" speed="9.01" length="12.29" shape="3207.88,2144.05 3210.90,2144.54 3213.75,2144.11 3216.41,2142.76 3218.91,2140.50"/>
    </edge>
    <edge id=":3663250301_4" function="internal">
        <lane id=":3663250301_4_0" index="0" disallow="tram rail_urban rail rail_electric rail_fast ship" speed="22.22" length="15.97" shape="3207.88,2144.05 3211.59,2145.26 3215.42,2146.68 3219.19,2148.24 3222.73,2149.88"/>
    </edge>
    <edge id=":3663250301_5" function="internal">
        <lane id=":3663250301_5_0" index="0" disallow="tram rail_urban rail rail_electric rail_fast ship" speed="6.50" length="11.95" shape="3207.88,2144.05 3211.80,2145.64 3213.96,2147.48 3214.37,2149.60 3213.03,2151.97"/>
    </edge>
    <edge id=":3663250301_6" function="internal">
        <lane id=":3663250301_6_0" index="0" disallow="tram rail_urban rail rail_electric rail_fast ship" speed="22.22" length="12.49" shape="3210.64,2149.85 3218.91,2140.50"/>
    </edge>
    <edge id=":3663250301_7" function="internal">
        <lane id=":3663250301_7_0" index="0" disallow="tram rail_urban rail rail_electric rail_fast ship" speed="8.54" length="2.75" shape="3210.64,2149.85 3212.76,2148.30 3212.88,2148.28"/>
    </edge>
    <edge id=":3663250301_8" function="internal">
        <lane id=":3663250301_8_0" index="0" disallow="tram rail_urban rail rail_electric rail_fast ship" speed="3.65" length="1.44" shape="3210.64,2149.85 3212.03,2149.48"/>
    </edge>
    <edge id=":3663250301_10" function="internal">
        <lane id=":3663250301_10_0" index="0" disallow="tram rail_urban rail rail_electric rail_fast ship" speed="8.54" length="10.24" shape="3212.88,2148.28 3215.49,2147.79 3218.81,2148.31 3222.73,2149.88"/>
    </edge>
    <edge id=":3663250301_11" function="internal">
        <lane id=":3663250301_11_0" index="0" disallow="tram rail_urban rail rail_electric rail_fast ship" speed="3.65" length="3.23" shape="3212.03,2149.48 3212.89,2149.71 3213.23,2150.54 3213.03,2151.97"/>
    </edge>
    <edge id=":3663250324_0" function="internal">
        <lane id=":3663250324_0_0" index="0" disallow="tram rail_urban rail rail_electric rail_fast ship" speed="6.08" length="7.68" shape="5654.02,2659.59 5653.03,2661.44 5651.68,2662.54 5649.98,2662.88 5647.92,2662.46"/>
    </edge>
    <edge id=":3663250324_1" function="internal">
        <lane id=":3663250324_1_0" index="0" disallow="tram rail_urban rail rail_electric rail_fast ship" speed="3.90" length="2.56" shape="5648.98,2659.45 5649.67,2659.59 5650.24,2659.47 5650.69,2659.11 5651.02,2658.49"/>
    </edge>
    <edge id=":3663252848_0" function="internal">
        <lane id=":3663252848_0_0" index="0" disallow="tram rail_urban rail rail_electric rail_fast ship" speed="6.82" length="10.20" shape="3040.86,4080.85 3040.29,4078.42 3038.87,4076.77 3036.61,4075.88 3033.51,4075.77"/>
    </edge>
    <edge id=":3663252848_1" function="internal">
        <lane id=":3663252848_1_0" index="0" disallow="tram rail_urban rail rail_electric rail_fast ship" speed="25.00" length="14.65" shape="3040.86,4080.85 3040.42,4077.19 3039.68,4073.63 3038.96,4070.07 3038.54,4066.40"/>
    </edge>
    <edge id=":3663252848_2" function="internal">
        <lane id=":3663252848_2_0" index="0" disallow="tram rail_urban rail rail_electric rail_fast ship" speed="27.78" length="12.51" shape="3045.98,4074.80 3033.51,4075.77"/>
        <lane id=":3663252848_2_1" index="1" disallow="tram rail_urban rail rail_electric rail_fast ship" speed="27.78" length="12.51" shape="3045.74,4071.61 3033.27,4072.58"/>
    </edge>
    <edge id=":3663252848_4" function="internal">
        <lane id=":3663252848_4_0" index="0" disallow="tram rail_urban rail rail_electric rail_fast ship" speed="6.79" length="10.18" shape="3045.74,4071.61 3042.69,4071.49 3040.47,4070.58 3039.09,4068.88 3038.54,4066.40"/>
    </edge>
    <edge id=":3663252848_5" function="internal">
        <lane id=":3663252848_5_0" index="0" disallow="tram rail_urban rail rail_electric rail_fast ship" speed="7.43" length="11.82" shape="3041.73,4066.26 3041.30,4068.77 3039.75,4070.66 3037.07,4071.93 3033.27,4072.58"/>
    </edge>
    <edge id=":3663252848_6" function="internal">
        <lane id=":3663252848_6_0" index="0" disallow="tram rail_urban rail rail_electric rail_fast ship" speed="3.65" length="4.67" shape="3041.73,4066.26 3040.99,4067.49 3040.21,4067.93 3039.39,4067.57 3038.54,4066.40"/>
    </edge>
    <edge id=":3663252850_0" function="internal">
        <lane id=":3663252850_0_0" index="0" disallow="tram rail_urban rail rail_electric rail_fast ship" speed="22.22" length="11.46" shape="2861.46,2547.95 2853.90,2556.56"/>
    </edge>
    <edge id=":3663252850_1" function="internal">
        <lane id=":3663252850_1_0" index="0" disallow="tram rail_urban rail rail_electric rail_fast ship" speed="8.64" length="2.16" shape="2861.46,2547.95 2859.75,2549.04 2859.62,2549.05"/>
    </edge>
    <edge id=":3663252850_2" function="internal">
        <lane id=":3663252850_2_0" index="0" disallow="tram rail_urban rail rail_electric rail_fast ship" speed="3.65" length="1.44" shape="2861.46,2547.95 2860.07,2548.33"/>
    </edge>
    <edge id=":3663252850_6" function="internal">
        <lane id=":3663252850_6_0" index="0" disallow="tram rail_urban rail rail_electric rail_fast ship" speed="8.64" length="10.10" shape="2859.62,2549.05 2857.24,2549.32 2853.92,2548.79 2849.79,2547.46"/>
    </edge>
    <edge id=":3663252850_7" function="internal">