<?xml version="1.0" encoding="UTF-8"?>

<!-- generated on 2023-11-02 17:07:59 by Eclipse SUMO netconvert Version 1.18.0
<configuration xmlns:xsi="http://www.w3.org/2001/XMLSchema-instance" xsi:noNamespaceSchemaLocation="http://sumo.dlr.de/xsd/netconvertConfiguration.xsd">

    <input>
        <type-files value="osmNetconvert.typ.xml"/>
        <osm-files value="guangshen.osm"/>
    </input>

    <output>
        <output-file value="guangshen.net.xml"/>
    </output>

    <projection>
        <proj.utm value="true"/>
    </projection>

    <report>
        <xml-validation value="never"/>
    </report>

</configuration>
-->

<net version="1.16" junctionCornerDetail="5" limitTurnSpeed="5.50" xmlns:xsi="http://www.w3.org/2001/XMLSchema-instance" xsi:noNamespaceSchemaLocation="http://sumo.dlr.de/xsd/net_file.xsd">

    <location netOffset="-776212.18,-2524068.19" convBoundary="0.00,0.00,5280.70,3589.46" origBoundary="113.691247,22.800691,113.742022,22.833758" projParameter="+proj=utm +zone=49 +ellps=WGS84 +datum=WGS84 +units=m +no_defs"/>

    <type id="highway.motorway" priority="14" numLanes="2" speed="39.44" allow="private emergency authority army vip passenger hov taxi bus coach delivery truck trailer motorcycle evehicle custom1 custom2" oneway="1"/>
    <type id="highway.primary" priority="12" numLanes="2" speed="27.78" disallow="tram rail_urban rail rail_electric rail_fast ship" oneway="0"/>
    <type id="highway.tertiary" priority="10" numLanes="1" speed="22.22" disallow="tram rail_urban rail rail_electric rail_fast ship" oneway="0"/>

    <edge id=":3659094279_0" function="internal">
        <lane id=":3659094279_0_0" index="0" disallow="tram rail_urban rail rail_electric rail_fast ship" speed="27.78" length="0.31" shape="1304.16,3582.71 1304.21,3582.70 1304.24,3582.70 1304.27,3582.70 1304.32,3582.69"/>
        <lane id=":3659094279_0_1" index="1" disallow="tram rail_urban rail rail_electric rail_fast ship" speed="27.78" length="0.31" shape="1304.43,3585.90 1304.57,3585.88 1304.67,3585.87 1304.76,3585.86 1304.90,3585.83"/>
    </edge>
    <edge id=":3659094632_0" function="internal">
        <lane id=":3659094632_0_0" index="0" disallow="tram rail_urban rail rail_electric rail_fast ship" speed="10.29" length="7.75" shape="3320.96,1731.00 3322.96,1729.82 3324.41,1728.99 3325.50,1727.88 3326.37,1725.87"/>
    </edge>
    <edge id=":3659094632_1" function="internal">
        <lane id=":3659094632_1_0" index="0" disallow="tram rail_urban rail rail_electric rail_fast ship" speed="27.78" length="7.78" shape="3324.22,1733.38 3326.37,1725.87"/>
        <lane id=":3659094632_1_1" index="1" disallow="tram rail_urban rail rail_electric rail_fast ship" speed="27.78" length="7.78" shape="3327.30,1734.26 3329.43,1726.80"/>
    </edge>
    <edge id=":3659094642_0" function="internal">
        <lane id=":3659094642_0_0" index="0" disallow="tram rail_urban rail rail_electric rail_fast ship" speed="25.00" length="15.84" shape="3299.40,1820.22 3300.22,1815.25 3300.16,1811.38 3299.64,1808.01 3299.09,1804.53"/>
    </edge>
    <edge id=":3659094642_1" function="internal">
        <lane id=":3659094642_1_0" index="0" disallow="tram rail_urban rail rail_electric rail_fast ship" speed="27.78" length="15.86" shape="3299.40,1820.22 3303.78,1804.92"/>
        <lane id=":3659094642_1_1" index="1" disallow="tram rail_urban rail rail_electric rail_fast ship" speed="27.78" length="15.86" shape="3302.51,1820.98 3306.85,1805.80"/>
    </edge>
    <edge id=":3659094675_0" function="internal">
        <lane id=":3659094675_0_0" index="0" disallow="tram rail_urban rail rail_electric rail_fast ship" speed="27.78" length="0.26" shape="1290.22,3583.89 1290.44,3583.88"/>
        <lane id=":3659094675_0_1" index="1" disallow="tram rail_urban rail rail_electric rail_fast ship" speed="27.78" length="0.26" shape="1290.40,3587.09 1290.71,3587.07"/>
    </edge>
    <edge id=":3663250324_0" function="internal">
        <lane id=":3663250324_0_0" index="0" disallow="tram rail_urban rail rail_electric rail_fast ship" speed="3.65" length="4.67" shape="5189.45,1986.15 5190.31,1987.30 5190.42,1988.19 5189.78,1988.81 5188.38,1989.17"/>
    </edge>
    <edge id=":3663253032_0" function="internal">
        <lane id=":3663253032_0_0" index="0" disallow="tram rail_urban rail rail_electric rail_fast ship" speed="6.71" length="9.23" shape="3265.16,2087.21 3262.61,2087.06 3260.58,2087.72 3259.10,2089.18 3258.14,2091.45"/>
    </edge>
    <edge id=":3663253032_1" function="internal">
        <lane id=":3663253032_1_0" index="0" disallow="tram rail_urban rail rail_electric rail_fast ship" speed="3.65" length="4.67" shape="3265.16,2087.21 3264.14,2086.20 3263.90,2085.34 3264.45,2084.63 3265.78,2084.07"/>
    </edge>
    <edge id=":3663253032_2" function="internal">
        <lane id=":3663253032_2_0" index="0" disallow="tram rail_urban rail rail_electric rail_fast ship" speed="6.46" length="9.03" shape="3261.44,2077.49 3261.27,2079.96 3261.93,2081.89 3263.43,2083.26 3265.78,2084.07"/>
    </edge>
    <edge id=":3663253032_3" function="internal">
        <lane id=":3663253032_3_0" index="0" disallow="tram rail_urban rail rail_electric rail_fast ship" speed="27.78" length="14.28" shape="3261.44,2077.49 3258.14,2091.45"/>
        <lane id=":3663253032_3_1" index="1" disallow="tram rail_urban rail rail_electric rail_fast ship" speed="27.78" length="14.28" shape="3258.31,2076.81 3255.04,2090.65"/>
    </edge>

    <edge id="-361920424" from="3663253032" to="3663250324" priority="10" type="highway.tertiary" shape="3258.34,2084.25 3486.91,2128.87 3505.75,2131.24 3525.17,2132.53 3553.26,2131.08 3576.59,2128.14 3676.40,2099.46 3695.51,2094.33 3712.05,2091.30 3811.39,2081.67 4270.42,2038.22 4798.27,1979.47 5057.53,1945.90 5071.55,1946.16 5188.91,1987.66">
        <lane id="-361920424_0" index="0" disallow="tram rail_urban rail rail_electric rail_fast ship" speed="22.22" length="1948.33" shape="3265.78,2084.07 3487.16,2127.29 3505.90,2129.65 3525.18,2130.93 3553.12,2129.48 3576.27,2126.56 3675.97,2097.92 3695.16,2092.76 3711.83,2089.71 3811.24,2080.08 4270.26,2036.63 4798.08,1977.88 5057.44,1944.30 5071.84,1944.56 5189.45,1986.15"/>
    </edge>
    <edge id="332416483#0" from="691167367" to="3663253032" priority="12" type="highway.primary" spreadType="center" shape="5280.70,18.40 5248.63,30.96 5086.55,84.54 4982.77,122.76 4892.25,159.45 4816.90,194.91 4742.69,236.56 4662.06,289.59 4597.26,336.34 4548.72,375.32 4500.23,419.22 4465.98,452.97 4431.32,486.99 4387.52,538.10 4310.21,635.74 4303.28,645.06 4266.39,694.80 4240.81,729.66 4211.81,762.70 4184.46,788.78 4178.77,793.48 4155.92,812.35 4125.75,833.99 4084.77,859.96 3994.77,913.09 3922.24,960.66 3841.55,1017.94 3771.32,1074.73 3730.28,1111.51 3689.30,1151.58 3650.66,1192.38 3614.32,1235.41 3590.19,1266.34 3554.48,1319.79 3520.99,1379.60 3488.92,1430.65 3452.55,1489.43 3419.79,1547.88 3392.66,1599.57 3365.37,1667.03 3346.48,1720.52 3331.54,1768.18 3322.35,1803.37 3285.60,1958.31 3258.34,2084.25">
        <lane id="332416483#0_0" index="0" disallow="tram rail_urban rail rail_electric rail_fast ship" speed="27.78" length="3024.51" shape="5281.28,19.89 5249.18,32.47 5087.08,86.05 4983.35,124.25 4892.89,160.91 4817.64,196.33 4743.52,237.93 4662.96,290.91 4598.23,337.62 4549.76,376.54 4501.33,420.38 4467.10,454.11 4432.49,488.09 4388.76,539.12 4311.48,636.71 4304.57,646.02 4267.68,695.75 4242.06,730.67 4212.97,763.81 4185.53,789.97 4179.79,794.71 4156.89,813.62 4126.65,835.32 4085.61,861.32 3995.62,914.45 3923.14,961.98 3842.52,1019.21 3772.36,1075.95 3731.37,1112.68 3690.45,1152.71 3651.85,1193.45 3615.56,1236.42 3591.49,1267.28 3555.84,1320.63 3522.37,1380.41 3490.28,1431.50 3453.93,1490.25 3421.20,1548.64 3394.11,1600.25 3366.87,1667.59 3348.00,1721.02 3333.08,1768.62 3323.90,1803.75 3287.16,1958.66 3261.44,2077.49"/>
        <lane id="332416483#0_1" index="1" disallow="tram rail_urban rail rail_electric rail_fast ship" speed="27.78" length="3024.51" shape="5280.11,16.91 5248.09,29.46 5086.02,83.03 4982.20,121.27 4891.61,157.98 4816.17,193.49 4741.86,235.19 4661.15,288.27 4596.29,335.07 4547.68,374.10 4499.14,418.05 4464.86,451.83 4430.15,485.90 4386.29,537.09 4308.94,634.77 4302.00,644.11 4265.11,693.85 4239.56,728.66 4210.66,761.59 4183.40,787.58 4177.75,792.25 4154.94,811.08 4124.86,832.67 4083.94,858.59 3993.93,911.73 3921.34,959.34 3840.58,1016.66 3770.29,1073.52 3729.18,1110.34 3688.16,1150.46 3649.47,1191.32 3613.08,1234.40 3588.89,1265.40 3553.11,1318.96 3519.61,1378.78 3487.56,1429.80 3451.17,1488.62 3418.38,1547.11 3391.21,1598.90 3363.87,1666.46 3344.96,1720.01 3330.01,1767.74 3320.79,1802.98 3284.04,1957.95 3258.31,2076.81"/>
        <param key="ref" value="S122"/>
    </edge>
    <edge id="332416483#1" from="3663253032" to="3663252848" priority="12" type="highway.primary" spreadType="center" shape="3258.34,2084.25 3246.31,2131.02 3189.65,2372.58 3148.72,2544.43 3094.13,2778.22 3073.62,2867.02 3054.87,2949.27 3033.67,3023.27 3021.04,3058.24 3001.65,3101.71 2983.06,3138.22 2961.22,3172.21 2938.35,3201.92 2913.53,3232.97 2908.47,3238.49 2894.16,3252.19 2848.99,3289.03 2814.93,3312.79 2767.17,3340.54 2748.82,3349.79 2720.18,3363.51 2689.79,3375.55 2653.10,3385.42 2620.37,3393.06 2586.89,3398.58 2577.95,3399.27">
        <lane id="332416483#1_0" index="0" disallow="tram rail_urban rail rail_electric rail_fast ship" speed="27.78" length="1583.85" shape="3258.14,2091.45 3247.86,2131.40 3191.20,2372.94 3150.28,2544.80 3095.69,2778.58 3075.18,2867.38 3056.42,2949.67 3035.20,3023.76 3022.53,3058.84 3003.09,3102.40 2984.45,3139.02 2962.53,3173.13 2939.61,3202.91 2914.75,3234.01 2909.61,3239.61 2895.22,3253.39 2849.96,3290.31 2815.80,3314.14 2767.93,3341.95 2749.52,3351.22 2720.82,3364.98 2690.29,3377.07 2653.49,3386.97 2620.68,3394.63 2587.08,3400.17 2578.07,3400.87"/>
        <lane id="332416483#1_1" index="1" disallow="tram rail_urban rail rail_electric rail_fast ship" speed="27.78" length="1583.85" shape="3255.04,2090.65 3244.76,2130.64 3188.09,2372.21 3147.17,2544.06 3092.57,2777.86 3072.06,2866.66 3053.32,2948.87 3032.15,3022.77 3019.56,3057.64 3000.20,3101.03 2981.67,3137.42 2959.91,3171.28 2937.09,3200.93 2912.32,3231.93 2907.32,3237.37 2893.10,3250.99 2848.03,3287.75 2814.07,3311.44 2766.41,3339.13 2748.11,3348.35 2719.54,3362.04 2689.29,3374.03 2652.71,3383.86 2620.05,3391.49 2586.70,3396.99 2577.83,3397.67"/>
        <param key="ref" value="S122"/>
    </edge>
    <edge id="361434266#0" from="5077866487" to="3659094675" priority="12" type="highway.primary" spreadType="center" shape="0.00,3511.17 23.91,3515.05 141.22,3517.17 299.08,3525.39 419.61,3533.21 612.17,3547.37 702.84,3556.46 719.77,3557.96 810.52,3562.79 870.10,3567.11 948.23,3572.78 985.10,3575.45 1132.89,3586.35 1208.04,3589.46 1258.94,3587.50 1276.33,3586.28 1290.44,3585.48">
        <lane id="361434266#0_0" index="0" disallow="tram rail_urban rail rail_electric rail_fast ship" speed="27.78" length="1293.31" shape="0.26,3509.59 24.06,3513.45 141.28,3515.57 299.17,3523.79 419.72,3531.62 612.31,3545.78 702.99,3554.87 719.89,3556.36 810.62,3561.19 870.22,3565.52 948.35,3571.18 985.22,3573.85 1132.98,3584.76 1208.04,3587.86 1258.85,3585.90 1276.23,3584.68 1290.22,3583.89"/>
        <lane id="361434266#0_1" index="1" disallow="tram rail_urban rail rail_electric rail_fast ship" speed="27.78" length="1293.31" shape="-0.26,3512.75 23.77,3516.65 141.17,3518.77 298.99,3526.99 419.50,3534.81 612.03,3548.96 702.69,3558.06 719.66,3559.56 810.42,3564.39 869.99,3568.71 948.12,3574.37 984.99,3577.04 1132.80,3587.95 1208.04,3591.06 1259.03,3589.10 1276.44,3587.88 1290.40,3587.09"/>
        <param key="ref" value="S122"/>
    </edge>
    <edge id="361434266#1" from="3659094675" to="3659094279" priority="12" type="highway.primary" spreadType="center">
        <lane id="361434266#1_0" index="0" disallow="tram rail_urban rail rail_electric rail_fast ship" speed="27.78" length="13.78" shape="1290.44,3583.88 1304.16,3582.71"/>
        <lane id="361434266#1_1" index="1" disallow="tram rail_urban rail rail_electric rail_fast ship" speed="27.78" length="13.78" shape="1290.71,3587.07 1304.43,3585.90"/>
        <param key="ref" value="S122"/>
    </edge>
    <edge id="361434266#2" from="3659094279" to="3659094642" priority="12" type="highway.primary" spreadType="center" shape="1304.45,3584.29 1345.23,3576.75 1399.66,3563.73 1493.30,3535.84 1619.67,3497.69 1776.82,3449.40 1848.89,3427.91 1907.55,3412.42 1954.88,3402.13 2007.13,3393.85 2061.43,3388.71 2114.88,3386.24 2166.50,3386.48 2223.28,3386.69 2317.37,3386.68 2478.76,3387.17 2553.69,3385.55 2577.24,3383.73 2585.00,3383.13 2617.02,3377.85 2665.03,3366.33 2712.17,3349.93 2761.07,3327.42 2807.46,3299.50 2841.28,3273.96 2871.64,3248.63 2895.53,3223.32 2901.28,3217.95 2921.16,3193.24 2937.68,3171.50 2953.56,3146.85 2974.97,3113.69 2989.97,3084.65 3007.22,3045.39 3020.86,3008.37 3032.00,2971.73 3050.09,2895.21 3079.18,2774.24 3118.28,2603.60 3132.74,2544.54 3172.10,2374.59 3225.62,2132.55 3267.72,1956.47 3300.95,1820.64">
        <lane id="361434266#2_0" index="0" disallow="tram rail_urban rail rail_electric rail_fast ship" speed="27.78" length="3134.48" shape="1304.32,3582.69 1344.90,3575.18 1399.25,3562.18 1492.84,3534.31 1619.21,3496.16 1776.36,3447.86 1848.45,3426.37 1907.17,3410.86 1954.58,3400.56 2006.93,3392.26 2061.32,3387.11 2114.85,3384.64 2166.50,3384.88 2223.28,3385.09 2317.38,3385.08 2478.74,3385.57 2553.61,3383.95 2577.12,3382.14 2584.80,3381.54 2616.70,3376.28 2664.58,3364.79 2711.57,3348.45 2760.32,3326.00 2806.57,3298.17 2840.28,3272.71 2870.54,3247.46 2894.40,3222.18 2900.10,3216.85 2919.90,3192.26 2936.36,3170.58 2952.22,3145.99 2973.59,3112.89 2988.53,3083.96 3005.74,3044.79 3019.34,3007.86 3030.46,2971.31 3048.53,2894.84 3077.62,2773.88 3116.73,2603.23 3131.18,2544.17 3170.54,2374.24 3224.06,2132.20 3266.17,1956.09 3299.40,1820.22"/>
        <lane id="361434266#2_1" index="1" disallow="tram rail_urban rail rail_electric rail_fast ship" speed="27.78" length="3134.48" shape="1304.90,3585.83 1345.56,3578.31 1400.08,3565.27 1493.76,3537.38 1620.14,3499.22 1777.29,3450.93 1849.32,3429.45 1907.92,3413.98 1955.17,3403.70 2007.33,3395.44 2061.54,3390.30 2114.92,3387.84 2166.49,3388.08 2223.28,3388.29 2317.37,3388.28 2478.77,3388.77 2553.77,3387.15 2577.36,3385.33 2585.19,3384.72 2617.34,3379.42 2665.48,3367.87 2712.77,3351.42 2761.82,3328.83 2808.36,3300.83 2842.28,3275.21 2872.74,3249.80 2896.66,3224.45 2902.45,3219.04 2922.42,3194.23 2938.99,3172.41 2954.90,3147.72 2976.36,3114.49 2991.42,3085.34 3008.71,3045.99 3022.38,3008.88 3033.55,2972.14 3051.64,2895.59 3080.74,2774.61 3119.84,2603.97 3134.29,2544.91 3173.67,2374.94 3227.18,2132.91 3269.28,1956.84 3302.51,1820.98"/>
        <param key="ref" value="S122"/>
    </edge>
    <edge id="361434266#3" from="3659094642" to="3659094632" priority="12" type="highway.primary" spreadType="center">
        <lane id="361434266#3_0" index="0" disallow="tram rail_urban rail rail_electric rail_fast ship" speed="27.78" length="74.41" shape="3303.78,1804.92 3324.22,1733.38"/>
        <lane id="361434266#3_1" index="1" disallow="tram rail_urban rail rail_electric rail_fast ship" speed="27.78" length="74.41" shape="3306.85,1805.80 3327.30,1734.26"/>
        <param key="ref" value="S122"/>
    </edge>
    <edge id="361434266#4" from="3659094632" to="3659094652" priority="12" type="highway.primary" spreadType="center" shape="3327.90,1726.34 3339.05,1689.96 3354.48,1644.76 3378.59,1592.74 3405.91,1538.58 3445.13,1466.29 3491.27,1385.08 3539.98,1306.38 3572.48,1262.59 3601.29,1224.49 3645.64,1173.38 3680.33,1137.18 3701.70,1114.41 3746.54,1073.73 3779.17,1045.42 3825.60,1008.88 3880.48,968.65 3922.62,940.12 3973.93,908.19 4052.64,861.41 4100.58,831.89 4123.55,817.14 4132.09,811.65 4162.02,787.81 4190.07,761.47 4215.27,732.48 4243.10,695.59 4292.47,629.60 4298.16,622.32 4370.52,527.80 4383.66,512.13 4420.15,472.95 4472.21,421.58 4522.25,376.06 4593.48,317.09 4669.01,264.23 4694.85,247.58 4740.13,218.42 4822.79,174.74 4907.17,134.79 4983.77,106.06 5059.00,77.04 5173.84,36.42 5253.30,7.63 5278.01,0.00">
        <lane id="361434266#4_0" index="0" disallow="tram rail_urban rail rail_electric rail_fast ship" speed="27.78" length="2688.42" shape="3326.37,1725.87 3337.53,1689.47 3352.99,1644.16 3377.15,1592.05 3404.49,1537.84 3443.73,1465.51 3489.89,1384.26 3538.66,1305.48 3571.20,1261.63 3600.04,1223.48 3644.46,1172.31 3679.17,1136.08 3700.58,1113.27 3745.48,1072.54 3778.15,1044.19 3824.63,1007.60 3879.56,967.35 3921.75,938.78 3973.09,906.82 4051.81,860.04 4099.73,830.53 4122.68,815.79 4131.16,810.34 4160.97,786.60 4188.91,760.36 4214.03,731.48 4241.82,694.63 4291.20,628.63 4296.89,621.34 4369.27,526.80 4382.46,511.07 4419.00,471.83 4471.11,420.42 4521.20,374.85 4592.51,315.82 4668.12,262.90 4693.98,246.24 4739.32,217.04 4822.07,173.31 4906.55,133.31 4983.20,104.57 5058.44,75.54 5173.30,34.92 5252.79,6.11 5277.54,-1.53"/>
        <lane id="361434266#4_1" index="1" disallow="tram rail_urban rail rail_electric rail_fast ship" speed="27.78" length="2688.42" shape="3329.43,1726.80 3340.57,1690.45 3355.97,1645.36 3380.03,1593.44 3407.33,1539.32 3446.53,1467.07 3492.65,1385.89 3541.31,1307.28 3573.77,1263.55 3602.53,1225.49 3646.82,1174.46 3681.50,1138.28 3702.83,1115.55 3747.60,1074.93 3780.19,1046.66 3826.56,1010.15 3881.41,969.96 3923.49,941.46 3974.76,909.55 4053.47,862.78 4101.43,833.24 4124.41,818.49 4133.03,812.95 4163.07,789.02 4191.22,762.58 4216.51,733.49 4244.38,696.56 4293.75,630.58 4299.42,623.30 4371.77,528.81 4384.86,513.19 4421.29,474.06 4473.31,422.74 4523.30,377.27 4594.45,318.36 4669.90,265.56 4695.72,248.93 4740.94,219.81 4823.50,176.17 4907.80,136.26 4984.34,107.56 5059.55,78.54 5174.38,37.93 5253.81,9.15 5278.48,1.53"/>
        <param key="ref" value="S122"/>
    </edge>
    <edge id="361920410" from="3663252874" to="3659094632" priority="10" type="highway.tertiary" spreadType="center" shape="1697.54,1170.04 1711.13,1171.58 1739.72,1178.77 2082.23,1277.22 2349.85,1353.82 2688.20,1452.38 2753.26,1472.09 2788.72,1489.60 2988.22,1593.75 3261.63,1737.26 3281.09,1741.60 3292.59,1742.27 3304.12,1739.94 3313.18,1736.24 3327.90,1726.34">
        <lane id="361920410_0" index="0" disallow="tram rail_urban rail rail_electric rail_fast ship" speed="22.22" length="1734.06" shape="1697.54,1170.04 1711.13,1171.58 1739.72,1178.77 2082.23,1277.22 2349.85,1353.82 2688.20,1452.38 2753.26,1472.09 2788.72,1489.60 2988.22,1593.75 3261.63,1737.26 3281.09,1741.60 3292.59,1742.27 3304.12,1739.94 3313.18,1736.24 3320.96,1731.00"/>
    </edge>
    <edge id="361920424" from="3663250324" to="3663253032" priority="10" type="highway.tertiary" shape="5188.91,1987.66 5071.55,1946.16 5057.53,1945.90 4798.27,1979.47 4270.42,2038.22 3811.39,2081.67 3712.05,2091.30 3695.51,2094.33 3676.40,2099.46 3576.59,2128.14 3553.26,2131.08 3525.17,2132.53 3505.75,2131.24 3486.91,2128.87 3258.34,2084.25">
        <lane id="361920424_0" index="0" disallow="tram rail_urban rail rail_electric rail_fast ship" speed="22.22" length="1947.85" shape="5188.38,1989.17 5071.26,1947.75 5057.62,1947.50 4798.46,1981.05 4270.59,2039.81 3811.55,2083.27 3712.27,2092.88 3695.86,2095.89 3676.83,2101.00 3576.91,2129.71 3553.40,2132.67 3525.16,2134.13 3505.60,2132.83 3486.66,2130.46 3265.16,2087.21"/>
    </edge>
    <edge id="361920427" from="3659094642" to="3663253090" priority="10" type="highway.tertiary" spreadType="center" shape="3300.95,1820.64 3298.66,1800.82 3296.51,1795.05 3291.42,1785.99 3281.98,1772.86 3270.46,1759.94 3257.60,1750.00 3246.47,1742.56 2983.36,1602.92 2783.98,1498.83 2745.65,1480.70 2685.21,1462.31 2346.94,1363.77 2079.34,1287.19 1738.36,1190.22 1709.85,1184.66 1696.29,1182.08">
        <lane id="361920427_0" index="0" disallow="tram rail_urban rail rail_electric rail_fast ship" speed="22.22" length="1739.79" shape="3299.09,1804.53 3298.66,1800.82 3296.51,1795.05 3291.42,1785.99 3281.98,1772.86 3270.46,1759.94 3257.60,1750.00 3246.47,1742.56 2983.36,1602.92 2783.98,1498.83 2745.65,1480.70 2685.21,1462.31 2346.94,1363.77 2079.34,1287.19 1738.36,1190.22 1709.85,1184.66 1696.29,1182.08"/>
    </edge>
    <edge id="362572233" from="279959822" to="279959828" priority="14" type="highway.motorway" spreadType="center" shape="4662.87,1666.88 4607.47,1686.49 4300.43,1796.32 3966.31,1927.71 3764.96,2007.14 3622.69,2062.58 3420.09,2141.25 3079.07,2272.09 2850.02,2361.93 2631.19,2451.43 2511.33,2502.00">
        <lane id="362572233_0" index="0" allow="private emergency authority army vip passenger hov taxi bus coach delivery truck trailer motorcycle evehicle custom1 custom2" speed="39.44" length="2308.18" shape="4663.94,1669.90 4608.54,1689.50 4301.56,1799.31 3967.48,1930.69 3766.13,2010.12 3623.85,2065.57 3421.24,2144.24 3080.23,2275.08 2851.21,2364.90 2632.41,2454.39 2512.57,2504.95"/>
        <lane id="362572233_1" index="1" allow="private emergency authority army vip passenger hov taxi bus coach delivery truck trailer motorcycle evehicle custom1 custom2" speed="39.44" length="2308.18" shape="4662.87,1666.88 4607.47,1686.49 4300.43,1796.32 3966.31,1927.71 3764.96,2007.14 3622.69,2062.58 3420.09,2141.25 3079.07,2272.09 2850.02,2361.93 2631.19,2451.43 2511.33,2502.00"/>
        <lane id="362572233_2" index="2" allow="private emergency authority army vip passenger hov taxi bus coach delivery truck trailer motorcycle evehicle custom1 custom2" speed="39.44" length="2308.18" shape="4661.80,1663.86 4606.40,1683.47 4299.31,1793.32 3965.14,1924.73 3763.79,2004.16 3621.53,2059.60 3418.94,2138.27 3077.91,2269.11 2848.83,2358.96 2629.96,2448.48 2510.08,2499.05"/>
        <param key="ref" value="G4;G15;G9411"/>
    </edge>
    <edge id="362587255" from="294974392" to="848402048" priority="14" type="highway.motorway" spreadType="center" shape="2383.90,2511.68 2837.61,2338.54 3434.72,2107.66 3636.37,2031.02 3768.36,1980.46 3961.72,1904.13 4305.86,1770.43 4578.45,1675.81 4772.85,1612.91">
        <lane id="362587255_0" index="0" allow="private emergency authority army vip passenger hov taxi bus coach delivery truck trailer motorcycle evehicle custom1 custom2" speed="39.44" length="2552.83" shape="2382.75,2508.69 2836.46,2335.55 3433.58,2104.68 3635.23,2028.03 3767.20,1977.48 3960.55,1901.15 4304.76,1767.42 4577.43,1672.78 4771.86,1609.86"/>
        <lane id="362587255_1" index="1" allow="private emergency authority army vip passenger hov taxi bus coach delivery truck trailer motorcycle evehicle custom1 custom2" speed="39.44" length="2552.83" shape="2383.90,2511.68 2837.61,2338.54 3434.72,2107.66 3636.37,2031.02 3768.36,1980.46 3961.72,1904.13 4305.86,1770.43 4578.45,1675.81 4772.85,1612.91"/>
        <lane id="362587255_2" index="2" allow="private emergency authority army vip passenger hov taxi bus coach delivery truck trailer motorcycle evehicle custom1 custom2" speed="39.44" length="2552.83" shape="2385.04,2514.67 2838.76,2341.52 3435.87,2110.65 3637.51,2034.01 3769.52,1983.44 3962.89,1907.11 4306.97,1773.43 4579.47,1678.85 4773.83,1615.95"/>
        <param key="ref" value="G4;G15;G9411"/>
    </edge>

    <tlLogic id="3659094279" type="static" programID="0" offset="0">
        <phase duration="79" state="GG"/>
        <phase duration="6"  state="yy"/>
        <phase duration="5"  state="rr"/>
    </tlLogic>
    <tlLogic id="3659094675" type="static" programID="0" offset="0">
        <phase duration="79" state="GG"/>
        <phase duration="6"  state="yy"/>
        <phase duration="5"  state="rr"/>
    </tlLogic>

    <junction id="279959822" type="dead_end" x="4662.87" y="1666.88" incLanes="" intLanes="" shape="4661.27,1662.36 4664.47,1671.41"/>
    <junction id="279959828" type="dead_end" x="2511.33" y="2502.00" incLanes="362572233_0 362572233_1 362572233_2" intLanes="" shape="2513.19,2506.42 2509.46,2497.58"/>
    <junction id="294974392" type="dead_end" x="2383.90" y="2511.68" incLanes="" intLanes="" shape="2385.61,2516.17 2382.18,2507.20"/>
    <junction id="3659094279" type="traffic_light" x="1304.45" y="3584.29" incLanes="361434266#1_0 361434266#1_1" intLanes=":3659094279_0_0 :3659094279_0_1" shape="1305.19,3587.41 1304.03,3581.11 1304.57,3587.49 1304.80,3587.47 1304.88,3587.46 1304.96,3587.45">
        <request index="0" response="00" foes="00" cont="0"/>
        <request index="1" response="00" foes="00" cont="0"/>
    </junction>
    <junction id="3659094632" type="priority" x="3327.90" y="1726.34" incLanes="361920410_0 361434266#3_0 361434266#3_1" intLanes=":3659094632_0_0 :3659094632_1_0 :3659094632_1_1" shape="3330.98,1727.18 3324.87,1725.31 3323.80,1727.42 3323.12,1727.98 3322.30,1728.43 3321.29,1728.94 3320.06,1729.68 3321.85,1732.33 3322.50,1732.03 3322.68,1732.06 3322.77,1732.23 3322.77,1732.52 3322.68,1732.94 3328.84,1734.70">
        <request index="0" response="110" foes="110" cont="0"/>
        <request index="1" response="000" foes="001" cont="0"/>
        <request index="2" response="000" foes="001" cont="0"/>
    </junction>
    <junction id="3659094642" type="priority" x="3300.95" y="1820.64" incLanes="361434266#2_0 361434266#2_1" intLanes=":3659094642_0_0 :3659094642_1_0 :3659094642_1_1" shape="3308.39,1806.24 3302.24,1804.48 3300.68,1804.35 3297.50,1804.72 3297.95,1807.94 3298.38,1810.35 3298.67,1812.34 3298.75,1814.33 3298.51,1816.69 3297.85,1819.84 3304.06,1821.36">
        <request index="0" response="000" foes="000" cont="0"/>
        <request index="1" response="000" foes="000" cont="0"/>
        <request index="2" response="000" foes="000" cont="0"/>
    </junction>
    <junction id="3659094652" type="dead_end" x="5278.01" y="0.00" incLanes="361434266#4_0 361434266#4_1" intLanes="" shape="5277.06,-3.06 5278.95,3.06"/>
    <junction id="3659094675" type="traffic_light" x="1290.44" y="3585.48" incLanes="361434266#0_0 361434266#0_1" intLanes=":3659094675_0_0 :3659094675_0_1" shape="1290.84,3588.66 1290.30,3582.28 1290.13,3582.30 1290.49,3588.69">
        <request index="0" response="00" foes="00" cont="0"/>
        <request index="1" response="00" foes="00" cont="0"/>
    </junction>
    <junction id="3663250324" type="priority" x="5188.91" y="1987.66" incLanes="-361920424_0" intLanes=":3663250324_0_0" shape="5188.91,1987.66 5189.98,1984.64 5188.91,1987.66">
        <request index="0" response="0" foes="0" cont="0"/>
    </junction>
    <junction id="3663252848" type="dead_end" x="2577.95" y="3399.27" incLanes="332416483#1_0 332416483#1_1" intLanes="" shape="2578.19,3402.46 2577.70,3396.08"/>
    <junction id="3663252874" type="dead_end" x="1697.54" y="1170.04" incLanes="" intLanes="" shape="1697.36,1171.63 1697.72,1168.45"/>
    <junction id="3663253032" type="priority" x="3258.34" y="2084.25" incLanes="361920424_0 332416483#0_0 332416483#0_1" intLanes=":3663253032_0_0 :3663253032_1_0 :3663253032_2_0 :3663253032_3_0 :3663253032_3_1" shape="3264.86,2088.78 3266.08,2082.50 3264.00,2081.64 3263.35,2080.95 3262.97,2080.08 3262.86,2079.04 3263.00,2077.83 3256.75,2076.47 3253.49,2090.25 3259.69,2091.84 3260.71,2089.78 3261.48,2089.14 3262.43,2088.76 3263.56,2088.64">
        <request index="0" response="11000" foes="11000" cont="0"/>
        <request index="1" response="00100" foes="00100" cont="0"/>
        <request index="2" response="00000" foes="00010" cont="0"/>
        <request index="3" response="00000" foes="00001" cont="0"/>
        <request index="4" response="00000" foes="00001" cont="0"/>
    </junction>
    <junction id="3663253090" type="dead_end" x="1696.29" y="1182.08" incLanes="361920427_0" intLanes="" shape="1695.99,1183.65 1696.59,1180.51"/>
    <junction id="5077866487" type="dead_end" x="0.00" y="3511.17" incLanes="" intLanes="" shape="-0.51,3514.33 0.51,3508.01"/>
    <junction id="691167367" type="dead_end" x="5280.70" y="18.40" incLanes="" intLanes="" shape="5279.53,15.42 5281.86,21.38"/>
    <junction id="848402048" type="dead_end" x="4772.85" y="1612.91" incLanes="362587255_0 362587255_1 362587255_2" intLanes="" shape="4771.37,1608.34 4774.32,1617.48"/>

    <connection from="-361920424" to="361920424" fromLane="0" toLane="0" via=":3663250324_0_0" dir="t" state="M"/>
    <connection from="332416483#0" to="-361920424" fromLane="0" toLane="0" via=":3663253032_2_0" dir="r" state="M"/>
    <connection from="332416483#0" to="332416483#1" fromLane="0" toLane="0" via=":3663253032_3_0" dir="s" state="M"/>
    <connection from="332416483#0" to="332416483#1" fromLane="1" toLane="1" via=":3663253032_3_1" dir="s" state="M"/>
    <connection from="361434266#0" to="361434266#1" fromLane="0" toLane="0" via=":3659094675_0_0" tl="3659094675" linkIndex="0" dir="s" state="O"/>
    <connection from="361434266#0" to="361434266#1" fromLane="1" toLane="1" via=":3659094675_0_1" tl="3659094675" linkIndex="1" dir="s" state="O"/>
    <connection from="361434266#1" to="361434266#2" fromLane="0" toLane="0" via=":3659094279_0_0" tl="3659094279" linkIndex="0" dir="s" state="O"/>
    <connection from="361434266#1" to="361434266#2" fromLane="1" toLane="1" via=":3659094279_0_1" tl="3659094279" linkIndex="1" dir="s" state="O"/>
    <connection from="361434266#2" to="361920427" fromLane="0" toLane="0" via=":3659094642_0_0" dir="R" state="M"/>
    <connection from="361434266#2" to="361434266#3" fromLane="0" toLane="0" via=":3659094642_1_0" dir="s" state="M"/>
    <connection from="361434266#2" to="361434266#3" fromLane="1" toLane="1" via=":3659094642_1_1" dir="s" state="M"/>
    <connection from="361434266#3" to="361434266#4" fromLane="0" toLane="0" via=":3659094632_1_0" dir="s" state="M"/>
    <connection from="361434266#3" to="361434266#4" fromLane="1" toLane="1" via=":3659094632_1_1" dir="s" state="M"/>
    <connection from="361920410" to="361434266#4" fromLane="0" toLane="0" via=":3659094632_0_0" dir="s" state="m"/>
    <connection from="361920424" to="332416483#1" fromLane="0" toLane="0" via=":3663253032_0_0" dir="r" state="m"/>
    <connection from="361920424" to="-361920424" fromLane="0" toLane="0" via=":3663253032_1_0" dir="t" state="m"/>
